
Spectre (R) Circuit Simulator
Version 24.1.0.198.isr3 64bit -- 6 Jan 2025
Copyright (C) 1989-2024 Cadence Design Systems, Inc. All rights reserved worldwide. Cadence and Spectre are registered trademarks of Cadence Design Systems, Inc. All others are the property of their respective holders.

Includes RSA BSAFE(R) Cryptographic or Security Protocol Software from RSA Security, Inc.

User: galayko   Host: ropartz   HostID: E3846E43   PID: 905854
Memory  available: 126.5469 GB  physical: 133.8288 GB
Linux   : AlmaLinux release 9.7 (Moss Jungle Cat)
CPU Type: Intel(R) Core(TM) Ultra 7 265
        Socket: Processors [Frequency]
        0:       0 [800.0],  1 [2200.0],  2 [1731.8],  3 [800.0],  4 [800.0]
                 5 [800.0],  6 [800.0],  7 [800.0],  8 [800.0],  9 [800.0]
                10 [800.0], 11 [800.0], 12 [1694.6], 13 [1700.4], 14 [800.0]
                15 [800.0], 16 [800.0], 17 [1698.2], 18 [800.0], 19 [800.0]
        
System load averages (1min, 5min, 15min) : 0.9 %, 1.2 %, 0.9 %
HPC is enabled


Simulating `input.scs' on ropartz at 3:46:44 PM, Thur Apr 2, 2026 (process id: 905854).
Current working directory: /users/enseig/galayko/cours_EACN/projet/cadence_ihp_sg13g2/cds/sim/cours_EACN_SESI/comparator/maestro/results/maestro/ExplorerRun.0/1/cours_EACN_SESI_comparator_1/netlist
Command line:
    /users/soft/opus/Linux/SPECTRE-24.10.03.198/tools/bin/spectre -64  \
        input.scs +escchars +log ../psf/spectre.out -format psfxl -raw  \
        ../psf  \
        -I/users/soft/techno/dev/IHP/sg13/SG13G2_618_rev1.3.3/lib/TL_SG13/RLCG/spectre/  \
        +aps +mt +lqtimeout 900 -maxw 5 -maxn 5 -env ade  \
        +adespetkn=0001089D13A302B663E41FB550AF0DF415A679A322D5069144BF588C12F604E07EF416DC01A319B562BB63D375C9338045A34CF92AD521865BD168ED65FA4F926EFD79D15D9175FF34986CDB10991BD34DF37BC410970ED346EC15BE7B9917B258F7629845A045E340A279D136C874D33498101F6BBB07905D5600003663  \
        +mts -ahdllibdir  \
        /users/enseig/galayko/cours_EACN/projet/cadence_ihp_sg13g2/cds/sim/cours_EACN_SESI/comparator/maestro/results/maestro/ExplorerRun.0/sharedData/CDS/ahdl/input.ahdlSimDB  \
        +logstatus

Simulation Id: GSgxZaoIUUFCKYZe
Licensing Information:
[15:46:44.291265] Configured Lic search path (24.01-s002): 30000@cadence.cnfm.fr

Licensing Information:
[15:46:44.124610] Periodic Lic check successful

Loading /users/soft/opus/Linux/SPECTRE-24.10.03.198/tools.lnx86/cmi/lib/64bit/5.0/libinfineon_sh.so ...
Loading /users/soft/opus/Linux/SPECTRE-24.10.03.198/tools.lnx86/cmi/lib/64bit/5.0/libphilips_I_sh.so ...
Loading /users/soft/opus/Linux/SPECTRE-24.10.03.198/tools.lnx86/cmi/lib/64bit/5.0/libphilips_sh.so ...
Loading /users/soft/opus/Linux/SPECTRE-24.10.03.198/tools.lnx86/cmi/lib/64bit/5.0/libsparam_sh.so ...
Loading /users/soft/opus/Linux/SPECTRE-24.10.03.198/tools.lnx86/cmi/lib/64bit/5.0/libstmodels_sh.so ...
Reading file:  /users/enseig/galayko/cours_EACN/projet/cadence_ihp_sg13g2/cds/sim/cours_EACN_SESI/comparator/maestro/results/maestro/ExplorerRun.0/1/cours_EACN_SESI_comparator_1/netlist/input.scs
Reading file:  /users/soft/opus/Linux/SPECTRE-24.10.03.198/tools.lnx86/spectre/etc/configs/spectre.cfg
Reading file:  /users/enseig/galayko/cours_EACN/projet/cadence_ihp_sg13g2/cds/sim/cours_EACN_SESI/comparator/maestro/results/maestro/ExplorerRun.0/1/cours_EACN_SESI_comparator_1/netlist/ade_e.scs
Reading file:  /users/soft/techno/dev/IHP/sg13/SG13G2_618_rev1.3.3/tech/SG13G2_HBT/VBIC/spectre/SG13G2_cornerBIP_vbic.scs
Reading file:  /users/soft/techno/dev/IHP/sg13/SG13G2_618_rev1.3.3/tech/SG13G2_HBT/VBIC/spectre/SG13G2_hbt_vbic.lib
Reading file:  /users/soft/techno/dev/IHP/sg13/SG13G2_618_rev1.3.3/tech/SG13G2_HBT/VBIC/spectre/SG13G2_hbt_stat.scs
Reading file:  /users/soft/techno/dev/IHP/sg13/SG13G2_618_rev1.3.3/tech/SG13G2_HBT/VBIC/spectre/SG13G2_hbt_mm.scs
Reading file:  /users/soft/techno/dev/IHP/sg13/SG13G2_618_rev1.3.3/tech/SG13_MOS/library/spectreG2/cornerMOSlv_psp.scs
Reading file:  /users/soft/techno/dev/IHP/sg13/SG13G2_618_rev1.3.3/tech/SG13_MOS/library/spectreG2/sg13g2_moslv_psp_stat.scs
Reading file:  /users/soft/techno/dev/IHP/sg13/SG13G2_618_rev1.3.3/tech/SG13_MOS/library/spectreG2/sg13g2_moslv_psp_mod.lib
Reading file:  /users/soft/techno/dev/IHP/sg13/SG13G2_618_rev1.3.3/tech/SG13_MOS/library/spectreG2/sg13g2_moslv_psp_parm.scs
Reading file:  /users/soft/techno/dev/IHP/sg13/SG13G2_618_rev1.3.3/tech/SG13_MOS/library/spectreG2/cornerMOShv_psp.scs
Reading file:  /users/soft/techno/dev/IHP/sg13/SG13G2_618_rev1.3.3/tech/SG13_MOS/library/spectreG2/sg13g2_moshv_psp_stat.scs
Reading file:  /users/soft/techno/dev/IHP/sg13/SG13G2_618_rev1.3.3/tech/SG13_MOS/library/spectreG2/sg13g2_moshv_psp_mod.lib
Reading file:  /users/soft/techno/dev/IHP/sg13/SG13G2_618_rev1.3.3/tech/SG13_MOS/library/spectreG2/sg13g2_moshv_psp_parm.scs
Reading file:  /users/soft/techno/dev/IHP/sg13/SG13G2_618_rev1.3.3/tech/SG13_MOS/library/spectreG2/sg13g2_svaricaphv_mosvar_mod.lib
Reading file:  /users/soft/techno/dev/IHP/sg13/SG13G2_618_rev1.3.3/tech/SG13G2_PASSIVES/spectre/SG13_cornerRES.scs
Reading file:  /users/soft/techno/dev/IHP/sg13/SG13G2_618_rev1.3.3/tech/SG13G2_PASSIVES/spectre/SG13_res_mm.scs
Reading file:  /users/soft/techno/dev/IHP/sg13/SG13G2_618_rev1.3.3/tech/SG13G2_PASSIVES/spectre/SG13_res_stat.scs
Reading file:  /users/soft/techno/dev/IHP/sg13/SG13G2_618_rev1.3.3/tech/SG13G2_PASSIVES/spectre/SG13_res.lib
Reading file:  /users/soft/techno/dev/IHP/sg13/SG13G2_618_rev1.3.3/tech/SG13G2_PASSIVES/spectre/SG13_cornerCAP.scs
Reading file:  /users/soft/techno/dev/IHP/sg13/SG13G2_618_rev1.3.3/tech/SG13G2_PASSIVES/spectre/SG13_cap_mm.scs
Reading file:  /users/soft/techno/dev/IHP/sg13/SG13G2_618_rev1.3.3/tech/SG13G2_PASSIVES/spectre/SG13_cap_stat.scs
Reading file:  /users/soft/techno/dev/IHP/sg13/SG13G2_618_rev1.3.3/tech/SG13G2_PASSIVES/spectre/SG13_cap.lib
Reading file:  /users/soft/techno/dev/IHP/sg13/SG13G2_618_rev1.3.3/tech/SG13G2_PASSIVES/spectre/sg13g2_dschottky_nbl1_corner.scs
Reading file:  /users/soft/techno/dev/IHP/sg13/SG13G2_618_rev1.3.3/tech/SG13G2_PASSIVES/spectre/sg13g2_dschottky_nbl1_stat.scs
Reading file:  /users/soft/techno/dev/IHP/sg13/SG13G2_618_rev1.3.3/tech/SG13G2_PASSIVES/spectre/sg13g2_dschottky_nbl1_mod.lib
Reading file:  /users/soft/techno/dev/IHP/sg13/SG13G2_618_rev1.3.3/tech/SG13G2_PASSIVES/spectre/SG13_diodes.lib
Reading file:  /users/soft/techno/dev/IHP/sg13/SG13G2_618_rev1.3.3/tech/SG13_ESD/spectre/SG13_esd.lib
Reading file:  /users/soft/techno/dev/IHP/sg13/SG13G2_618_rev1.3.3/tech/SG13_PASSIVES/spectre/SG13_cornerTSV.scs
Reading file:  /users/soft/techno/dev/IHP/sg13/SG13G2_618_rev1.3.3/tech/SG13_PASSIVES/spectre/SG13_paramsTSV.scs
Reading file:  /users/soft/techno/dev/IHP/sg13/SG13G2_618_rev1.3.3/tech/SG13_PASSIVES/spectre/SG13_tsv.lib
Reading file:  /users/soft/techno/dev/IHP/sg13/SG13G2_618_rev1.3.3/tech/SG13_PASSIVES/spectre/SG13_bondpad.lib

Notice from spectre in `bondpad_model', during circuit read-in.
    "/users/soft/techno/dev/IHP/sg13/SG13G2_618_rev1.3.3/tech/SG13_PASSIVES/spectre/SG13_bondpad.lib" 13: Subcircuit 'bondpad_model' is empty.

Time for NDB Parsing: CPU = 51.521 ms, elapsed = 391.935 ms.
Time accumulated: CPU = 111 ms, elapsed = 391.936 ms.
Peak resident memory used = 193 Mbytes.

Time for Elaboration: CPU = 9.288 ms, elapsed = 12.742 ms.
Time accumulated: CPU = 120.325 ms, elapsed = 404.714 ms.
Peak resident memory used = 202 Mbytes.

 Start ADE Session ID: GSgxZaoIUUFCKYZe


Warning from spectre during hierarchy flattening.
    WARNING (SPECTRE-8527): There are some nodes and instances removed from the netlist topology check. Check the circuit and correct the topology. Or use preserve_inst to keep them if necessary.

***********************************************
  Total removed instances 2 ( dangling 2, terminals connected together 0)  

Warning from spectre during hierarchy flattening.
    WARNING (SPECTRE-8529): Dangling instance. V0 is removed.
    WARNING (SPECTRE-8529): Dangling instance. V1 is removed.


  Total removed nodes 2 ( dangling nodes 2, floating nodes 0 )

Warning from spectre during hierarchy flattening.
    WARNING (SPECTRE-8530): Dangling node. net7 is removed.
    WARNING (SPECTRE-8530): Dangling node. net4 is removed.

***********************************************
Time for EDB Visiting: CPU = 494 us, elapsed = 494.003 us.
Time accumulated: CPU = 120.86 ms, elapsed = 405.248 ms.
Peak resident memory used = 203 Mbytes.


Notice from spectre during initial setup.
    Multithreading is disabled due to the size of the design being too small.


Netlist title:
        // Point Netlist Generated on: Apr  2 15:46:41 2026


Global user options:
         psfversion = 1.4.0
            vabstol = 1e-06
            iabstol = 1e-12
               temp = 27
               gmin = 1e-12
             rforce = 1
           maxnotes = 5
           maxwarns = 5
             digits = 5
               cols = 80
             pivrel = 0.001
           sensfile = ../psf/sens.output
     checklimitdest = sqldb
      ignorezerovar = yes
               save = allpub
           currents = all
     subcktprobelvl = 5
       saveahdlvars = all
             reltol = 0.001
               tnom = 27
             scalem = 1
              scale = 1

Scoped user options:

Circuit inventory:
              nodes 8
            isource 4     
          pspnqs103 4     
           resistor 2     
            vsource 4     

Analysis and control statement inventory:
                 dc 1     
               info 8     
               tran 1     

Output statements:
             .probe 0     
           .measure 0     
               save 0     

Design checks inventory:
          paramtest 17    


Notice from spectre during initial setup.
    Protected devices exist and are not included in the circuit inventory.
    APS enabled.

Time for parsing: CPU = 1.195 ms, elapsed = 6.68597 ms.
Time accumulated: CPU = 122.081 ms, elapsed = 411.959 ms.
Peak resident memory used = 207 Mbytes.

~~~~~~~~~~~~~~~~~~~~~~
Pre-Simulation Summary
~~~~~~~~~~~~~~~~~~~~~~
   -   (APS) Multi-threading. The recommended number of threads is 1, consider adding +mt=1 on command line.
~~~~~~~~~~~~~~~~~~~~~~

******************
DC Analysis `dcOp'
******************

Opening the PSF file ../psf/dcOp.dc ...
Important parameter values:
    reltol = 1e-03
    abstol(V) = 1 uV
    abstol(I) = 1 pA
    temp = 27 C
    tnom = 27 C
    tempeffects = all
    gmindc = 1 pS
    rabsshort = 1 mOhm

Maximum value achieved for any signal of each quantity: 
V: V(net10) = 865.2 mV
I: I(V2:p) = 6.05 uA
Convergence achieved in 7 iterations.
DC simulation time: CPU = 1.492 ms, elapsed = 7.34878 ms.
Total time required for dc analysis `dcOp': CPU = 1.515 ms, elapsed = 7.37 ms, util. = 20.6%.
Time accumulated: CPU = 128.731 ms, elapsed = 425.698 ms.
Peak resident memory used = 211 Mbytes.

dcOpInfo: writing operating point information to rawfile.

Opening the PSF file ../psf/dcOpInfo.info ...

*************************************************
Transient Analysis `tran': time = (0 s -> 100 ns)
*************************************************

Warning from spectre during transient analysis `tran'.
    WARNING (SPECTRE-17148): 'oscfreq' option is not set, 'linearic=yes' is ignored.
         


Opening the PSFXL file ../psf/tran.tran.tran ...
Important parameter values:
    start = 0 s
    outputstart = 0 s
    stop = 100 ns
    step = 100 ps
    maxstep = 110 ps
    ic = dev
    useprevic = no
    skipdc = yes
    reltol = 100e-06
    abstol(V) = 1 uV
    abstol(I) = 1 pA
    temp = 27 C
    tnom = 27 C
    tempeffects = all
    errpreset = conservative
    method = euler
    lteratio = 10
    relref = alllocal
    cmin = 0 F
    gmin = 1 pS
    rabsshort = 1 mOhm


Notice from spectre during transient analysis `tran'.
    Multithreading is disabled due to the size of the design being too small.


Output and IC/nodeset summary:
                 save   24      (current)
                 save   6       (voltage)

    tran: time = 2.53 ns     (2.53 %), step = 110 ps       (110 m%)
    tran: time = 7.55 ns     (7.55 %), step = 110 ps       (110 m%)
    tran: time = 12.5 ns     (12.5 %), step = 110 ps       (110 m%)
    tran: time = 17.56 ns    (17.6 %), step = 110 ps       (110 m%)
    tran: time = 22.51 ns    (22.5 %), step = 110 ps       (110 m%)
    tran: time = 27.57 ns    (27.6 %), step = 110 ps       (110 m%)
    tran: time = 32.52 ns    (32.5 %), step = 110 ps       (110 m%)
    tran: time = 37.58 ns    (37.6 %), step = 110 ps       (110 m%)
    tran: time = 42.53 ns    (42.5 %), step = 110 ps       (110 m%)
    tran: time = 47.59 ns    (47.6 %), step = 110 ps       (110 m%)
    tran: time = 52.54 ns    (52.5 %), step = 110 ps       (110 m%)
    tran: time = 57.6 ns     (57.6 %), step = 110 ps       (110 m%)
    tran: time = 62.55 ns    (62.5 %), step = 110 ps       (110 m%)
    tran: time = 67.5 ns     (67.5 %), step = 110 ps       (110 m%)
    tran: time = 72.56 ns    (72.6 %), step = 110 ps       (110 m%)
    tran: time = 77.51 ns    (77.5 %), step = 110 ps       (110 m%)
    tran: time = 82.57 ns    (82.6 %), step = 110 ps       (110 m%)
    tran: time = 87.52 ns    (87.5 %), step = 110 ps       (110 m%)
    tran: time = 92.58 ns    (92.6 %), step = 110 ps       (110 m%)
    tran: time = 97.53 ns    (97.5 %), step = 110 ps       (110 m%)
Number of accepted tran steps =             996

Maximum value achieved for any signal of each quantity: 
V: V(net8) = 5.656 V
I: I(V2:p) = 6.05 uA

~~~~~~~~~~~~~~~~~~~~~~~~~~~~~~~~~
Post-Transient Simulation Summary
~~~~~~~~~~~~~~~~~~~~~~~~~~~~~~~~~
   -   To further speed up simulation, consider
          add ++aps on command line
   -   Non-default settings that could significantly slow down simulation
          errpreset = conservative, default moderate
          maxstep = 110 ps, default 1 ns (conservative)
~~~~~~~~~~~~~~~~~~~~~~~~~~~~~~~~~


During simulation, the CPU load for active processors is :
         1 (2.3 %)       5 (4.4 %)      11 (6.8 %)      12 (17.8 %)
        17 (2.3 %)      18 (2.2 %)      
        Total: 35.9%
Initial condition solution time: CPU = 0 s, elapsed = 0 s.
Intrinsic tran analysis time:    CPU = 14.204 ms, elapsed = 25.105 ms.
Total time required for tran analysis `tran': CPU = 15.361 ms, elapsed = 30.324 ms, util. = 50.7%.
Time accumulated: CPU = 146.508 ms, elapsed = 476.357 ms.
Peak resident memory used = 215 Mbytes.

finalTimeOP: writing operating point information to rawfile.

Opening the PSF file ../psf/finalTimeOP.info ...
modelParameter: writing model parameter values to rawfile.

Opening the PSF file ../psf/modelParameter.info ...
element: writing instance parameter values to rawfile.

Opening the PSF file ../psf/element.info ...
outputParameter: writing output parameter values to rawfile.

Opening the PSF file ../psf/outputParameter.info ...
designParamVals: writing netlist parameters to rawfile.

Opening the PSFASCII file ../psf/designParamVals.info ...
primitives: writing primitives to rawfile.

Opening the PSFASCII file ../psf/primitives.info.primitives ...
subckts: writing subcircuits to rawfile.

Opening the PSFASCII file ../psf/subckts.info.subckts ...
Licensing Information:
Lic Summary:
[15:46:44.338882] Cdslmd servers:30000@cadence.cnfm.fr
[15:46:44.863186] Feature usage summary:
[15:46:44.863187] Virtuoso_Multi_mode_Simulation


Aggregate audit (3:46:44 PM, Thur Apr 2, 2026):
Time used: CPU = 153 ms, elapsed = 523 ms, util. = 29.3%.
Time spent in licensing: elapsed = 268 ms, percentage of total = 51.2%.
Peak memory used = 216 Mbytes.
Simulation started at: 3:46:44 PM, Thur Apr 2, 2026, ended at: 3:46:44 PM, Thur Apr 2, 2026, with elapsed time (wall clock): 523 ms.
spectre completes with 0 errors, 6 warnings, and 6 notices.


********* LOG ENDS **************
**                             **
