
Spectre (R) Circuit Simulator
Version 24.1.0.198.isr3 64bit -- 6 Jan 2025
Copyright (C) 1989-2024 Cadence Design Systems, Inc. All rights reserved worldwide. Cadence and Spectre are registered trademarks of Cadence Design Systems, Inc. All others are the property of their respective holders.

Includes RSA BSAFE(R) Cryptographic or Security Protocol Software from RSA Security, Inc.

User: carbou   Host: brahms   HostID: E3843D43   PID: 250705
Memory  available: 26.6402 GB  physical: 33.1539 GB
Linux   : AlmaLinux release 9.7 (Moss Jungle Cat)
CPU Type: Intel(R) Core(TM) i5-9500 CPU @ 3.00GHz
        Socket: Processors [Frequency]
        0:       0 [4290.1],  1 [4292.5],  2 [4202.8],  3 [4298.2],  4 [4292.3]
                 5 [4297.8]
        
System load averages (1min, 5min, 15min) : 10.3 %, 12.3 %, 13.2 %
HPC is enabled


Simulating `input.scs' on brahms at 3:51:59 PM, Thur May 7, 2026 (process id: 250705).
Current working directory: /users/enseig/carbou/Documents/S2/EACN/Projet/cadence_ihp_sg13g2/cds/sim/project_EACN_SESI/clock_gen/maestro/results/maestro/ExplorerRun.0/1/project_EACN_SESI_clock_gen_1/netlist
Command line:
    /users/soft/opus/Linux/SPECTRE-24.10.03.198/tools/bin/spectre -64  \
        input.scs +escchars +log ../psf/spectre.out -format psfxl -raw  \
        ../psf  \
        -I/users/soft/techno/dev/IHP/sg13/SG13G2_618_rev1.3.3/lib/TL_SG13/RLCG/spectre/  \
        +aps +mt +lqtimeout 900 -maxw 5 -maxn 5 -env ade  \
        +adespetkn=0001089D13A302B663E41FB550AF0DF415A679A322D5069144BF588C12F604E07EF416DC01A319B562BB63D300F746BE45A367EB29E73F9D58CB5AE957FB4F9260F979D15D9175FF349864C67B9974D35BED75CA7A8A74D359EB43E118F874D30EA879D118F874D3349879D118F874D33498102D8006EC2D5D64000036AC  \
        -ahdllibdir  \
        /users/enseig/carbou/Documents/S2/EACN/Projet/cadence_ihp_sg13g2/cds/sim/project_EACN_SESI/clock_gen/maestro/results/maestro/ExplorerRun.0/sharedData/CDS/ahdl/input.ahdlSimDB  \
        +logstatus

Simulation Id: 2mzQrilSKNtBwYTa
Licensing Information:
[15:51:59.291281] Configured Lic search path (24.01-s002): 30000@cadence.cnfm.fr

Licensing Information:
[15:51:59.191818] Periodic Lic check successful

Loading /users/soft/opus/Linux/SPECTRE-24.10.03.198/tools.lnx86/cmi/lib/64bit/5.0/libinfineon_sh.so ...
Loading /users/soft/opus/Linux/SPECTRE-24.10.03.198/tools.lnx86/cmi/lib/64bit/5.0/libphilips_I_sh.so ...
Loading /users/soft/opus/Linux/SPECTRE-24.10.03.198/tools.lnx86/cmi/lib/64bit/5.0/libphilips_sh.so ...
Loading /users/soft/opus/Linux/SPECTRE-24.10.03.198/tools.lnx86/cmi/lib/64bit/5.0/libsparam_sh.so ...
Loading /users/soft/opus/Linux/SPECTRE-24.10.03.198/tools.lnx86/cmi/lib/64bit/5.0/libstmodels_sh.so ...
Reading file:  /users/enseig/carbou/Documents/S2/EACN/Projet/cadence_ihp_sg13g2/cds/sim/project_EACN_SESI/clock_gen/maestro/results/maestro/ExplorerRun.0/1/project_EACN_SESI_clock_gen_1/netlist/input.scs
Reading file:  /users/soft/opus/Linux/SPECTRE-24.10.03.198/tools.lnx86/spectre/etc/configs/spectre.cfg
Reading file:  /users/enseig/carbou/Documents/S2/EACN/Projet/cadence_ihp_sg13g2/cds/sim/project_EACN_SESI/clock_gen/maestro/results/maestro/ExplorerRun.0/1/project_EACN_SESI_clock_gen_1/netlist/ade_e.scs
Reading file:  /users/soft/techno/dev/IHP/sg13/SG13G2_618_rev1.3.3/tech/SG13G2_HBT/VBIC/spectre/SG13G2_cornerBIP_vbic.scs
Reading file:  /users/soft/techno/dev/IHP/sg13/SG13G2_618_rev1.3.3/tech/SG13G2_HBT/VBIC/spectre/SG13G2_hbt_vbic.lib
Reading file:  /users/soft/techno/dev/IHP/sg13/SG13G2_618_rev1.3.3/tech/SG13G2_HBT/VBIC/spectre/SG13G2_hbt_stat.scs
Reading file:  /users/soft/techno/dev/IHP/sg13/SG13G2_618_rev1.3.3/tech/SG13G2_HBT/VBIC/spectre/SG13G2_hbt_mm.scs
Reading file:  /users/soft/techno/dev/IHP/sg13/SG13G2_618_rev1.3.3/tech/SG13_MOS/library/spectreG2/cornerMOSlv_psp.scs
Reading file:  /users/soft/techno/dev/IHP/sg13/SG13G2_618_rev1.3.3/tech/SG13_MOS/library/spectreG2/sg13g2_moslv_psp_stat.scs
Reading file:  /users/soft/techno/dev/IHP/sg13/SG13G2_618_rev1.3.3/tech/SG13_MOS/library/spectreG2/sg13g2_moslv_psp_mod.lib
Reading file:  /users/soft/techno/dev/IHP/sg13/SG13G2_618_rev1.3.3/tech/SG13_MOS/library/spectreG2/sg13g2_moslv_psp_parm.scs
Reading file:  /users/soft/techno/dev/IHP/sg13/SG13G2_618_rev1.3.3/tech/SG13_MOS/library/spectreG2/cornerMOShv_psp.scs
Reading file:  /users/soft/techno/dev/IHP/sg13/SG13G2_618_rev1.3.3/tech/SG13_MOS/library/spectreG2/sg13g2_moshv_psp_stat.scs
Reading file:  /users/soft/techno/dev/IHP/sg13/SG13G2_618_rev1.3.3/tech/SG13_MOS/library/spectreG2/sg13g2_moshv_psp_mod.lib
Reading file:  /users/soft/techno/dev/IHP/sg13/SG13G2_618_rev1.3.3/tech/SG13_MOS/library/spectreG2/sg13g2_moshv_psp_parm.scs
Reading file:  /users/soft/techno/dev/IHP/sg13/SG13G2_618_rev1.3.3/tech/SG13_MOS/library/spectreG2/sg13g2_svaricaphv_mosvar_mod.lib
Reading file:  /users/soft/techno/dev/IHP/sg13/SG13G2_618_rev1.3.3/tech/SG13G2_PASSIVES/spectre/SG13_cornerRES.scs
Reading file:  /users/soft/techno/dev/IHP/sg13/SG13G2_618_rev1.3.3/tech/SG13G2_PASSIVES/spectre/SG13_res_mm.scs
Reading file:  /users/soft/techno/dev/IHP/sg13/SG13G2_618_rev1.3.3/tech/SG13G2_PASSIVES/spectre/SG13_res_stat.scs
Reading file:  /users/soft/techno/dev/IHP/sg13/SG13G2_618_rev1.3.3/tech/SG13G2_PASSIVES/spectre/SG13_res.lib
Reading file:  /users/soft/techno/dev/IHP/sg13/SG13G2_618_rev1.3.3/tech/SG13G2_PASSIVES/spectre/SG13_cornerCAP.scs
Reading file:  /users/soft/techno/dev/IHP/sg13/SG13G2_618_rev1.3.3/tech/SG13G2_PASSIVES/spectre/SG13_cap_mm.scs
Reading file:  /users/soft/techno/dev/IHP/sg13/SG13G2_618_rev1.3.3/tech/SG13G2_PASSIVES/spectre/SG13_cap_stat.scs
Reading file:  /users/soft/techno/dev/IHP/sg13/SG13G2_618_rev1.3.3/tech/SG13G2_PASSIVES/spectre/SG13_cap.lib
Reading file:  /users/soft/techno/dev/IHP/sg13/SG13G2_618_rev1.3.3/tech/SG13G2_PASSIVES/spectre/sg13g2_dschottky_nbl1_corner.scs
Reading file:  /users/soft/techno/dev/IHP/sg13/SG13G2_618_rev1.3.3/tech/SG13G2_PASSIVES/spectre/sg13g2_dschottky_nbl1_stat.scs
Reading file:  /users/soft/techno/dev/IHP/sg13/SG13G2_618_rev1.3.3/tech/SG13G2_PASSIVES/spectre/sg13g2_dschottky_nbl1_mod.lib
Reading file:  /users/soft/techno/dev/IHP/sg13/SG13G2_618_rev1.3.3/tech/SG13G2_PASSIVES/spectre/SG13_diodes.lib
Reading file:  /users/soft/techno/dev/IHP/sg13/SG13G2_618_rev1.3.3/tech/SG13_ESD/spectre/SG13_esd.lib
Reading file:  /users/soft/techno/dev/IHP/sg13/SG13G2_618_rev1.3.3/tech/SG13_PASSIVES/spectre/SG13_cornerTSV.scs
Reading file:  /users/soft/techno/dev/IHP/sg13/SG13G2_618_rev1.3.3/tech/SG13_PASSIVES/spectre/SG13_paramsTSV.scs
Reading file:  /users/soft/techno/dev/IHP/sg13/SG13G2_618_rev1.3.3/tech/SG13_PASSIVES/spectre/SG13_tsv.lib
Reading file:  /users/soft/techno/dev/IHP/sg13/SG13G2_618_rev1.3.3/tech/SG13_PASSIVES/spectre/SG13_bondpad.lib

Notice from spectre in `bondpad_model', during circuit read-in.
    "/users/soft/techno/dev/IHP/sg13/SG13G2_618_rev1.3.3/tech/SG13_PASSIVES/spectre/SG13_bondpad.lib" 13: Subcircuit 'bondpad_model' is empty.

Time for NDB Parsing: CPU = 111.217 ms, elapsed = 506.421 ms.
Time accumulated: CPU = 210.186 ms, elapsed = 506.422 ms.
Peak resident memory used = 189 Mbytes.

Time for Elaboration: CPU = 20.709 ms, elapsed = 22.6579 ms.
Time accumulated: CPU = 230.978 ms, elapsed = 529.583 ms.
Peak resident memory used = 199 Mbytes.

 Start ADE Session ID: 2mzQrilSKNtBwYTa

Time for EDB Visiting: CPU = 2.883 ms, elapsed = 2.89297 ms.
Time accumulated: CPU = 233.947 ms, elapsed = 532.562 ms.
Peak resident memory used = 201 Mbytes.


Notice from spectre during initial setup.
    Multithreading is disabled due to the size of the design being too small.


Netlist title:
        // Point Netlist Generated on: May  7 15:51:56 2026


Global user options:
         psfversion = 1.4.0
            vabstol = 1e-06
            iabstol = 1e-12
               temp = 27
               gmin = 1e-12
             rforce = 1
           maxnotes = 5
           maxwarns = 5
             digits = 5
               cols = 80
             pivrel = 0.001
           sensfile = ../psf/sens.output
     checklimitdest = sqldb
      ignorezerovar = yes
               save = allpub
           currents = all
     subcktprobelvl = 5
       saveahdlvars = all
             reltol = 0.001
               tnom = 27
             scalem = 1
              scale = 1

Scoped user options:

Circuit inventory:
              nodes 46
          capacitor 1     
            isource 1     
          pspnqs103 81    
            vsource 1     

Analysis and control statement inventory:
               info 7     
               tran 1     

Output statements:
             .probe 0     
           .measure 0     
               save 0     

Design checks inventory:
          paramtest 325   


Notice from spectre during initial setup.
    Protected devices exist and are not included in the circuit inventory.
    APS enabled.

Time for parsing: CPU = 3.233 ms, elapsed = 17.0801 ms.
Time accumulated: CPU = 237.283 ms, elapsed = 550.989 ms.
Peak resident memory used = 204 Mbytes.

~~~~~~~~~~~~~~~~~~~~~~
Pre-Simulation Summary
~~~~~~~~~~~~~~~~~~~~~~
   -   (APS) Multi-threading. The recommended number of threads is 1, consider adding +mt=1 on command line.
~~~~~~~~~~~~~~~~~~~~~~

************************************************
Transient Analysis `tran': time = (0 s -> 10 us)
************************************************

Opening the PSFXL file ../psf/tran.tran.tran ...
Important parameter values:
    start = 0 s
    outputstart = 0 s
    stop = 10 us
    step = 10 ns
    maxstep = 100 ns
    ic = dev
    useprevic = no
    skipdc = yes
    reltol = 100e-06
    abstol(V) = 1 uV
    abstol(I) = 1 pA
    temp = 27 C
    tnom = 27 C
    tempeffects = all
    errpreset = conservative
    method = gear2only
    lteratio = 10
    relref = alllocal
    cmin = 0 F
    gmin = 1 pS
    rabsshort = 1 mOhm


Notice from spectre during transient analysis `tran'.
    Multithreading is disabled due to the size of the design being too small.


Output and IC/nodeset summary:
                 save   365     (current)
                 save   46      (voltage)


Warning from spectre at time = 303.613 fs during transient analysis `tran'.
    WARNING (SPECTRE-16780): LTE tolerance was temporarily relaxed to step over a discontinuity in the signal: I35.M0:int_GP. Check the design or use '+diagnose' to get more information.

    tran: time = 253.7 ns    (2.54 %), step = 4.186 ns    (41.9 m%)
    tran: time = 751.9 ns    (7.52 %), step = 2.921 ns    (29.2 m%)
    tran: time = 1.252 us    (12.5 %), step = 2.96 ns     (29.6 m%)
    tran: time = 1.752 us    (17.5 %), step = 2.976 ns    (29.8 m%)
    tran: time = 2.252 us    (22.5 %), step = 2.962 ns    (29.6 m%)
    tran: time = 2.751 us    (27.5 %), step = 2.976 ns    (29.8 m%)
    tran: time = 3.251 us    (32.5 %), step = 2.962 ns    (29.6 m%)
    tran: time = 3.751 us    (37.5 %), step = 2.976 ns    (29.8 m%)
    tran: time = 4.251 us    (42.5 %), step = 2.962 ns    (29.6 m%)
    tran: time = 4.75 us     (47.5 %), step = 2.976 ns    (29.8 m%)
    tran: time = 5.25 us     (52.5 %), step = 2.962 ns    (29.6 m%)
    tran: time = 5.754 us    (57.5 %), step = 4.756 ns    (47.6 m%)
    tran: time = 6.253 us    (62.5 %), step = 3.302 ns      (33 m%)
    tran: time = 6.754 us    (67.5 %), step = 4.756 ns    (47.6 m%)
    tran: time = 7.252 us    (72.5 %), step = 3.302 ns      (33 m%)
    tran: time = 7.753 us    (77.5 %), step = 4.756 ns    (47.6 m%)
    tran: time = 8.252 us    (82.5 %), step = 3.302 ns      (33 m%)
    tran: time = 8.753 us    (87.5 %), step = 4.756 ns    (47.6 m%)
    tran: time = 9.251 us    (92.5 %), step = 3.302 ns      (33 m%)
    tran: time = 9.752 us    (97.5 %), step = 4.756 ns    (47.6 m%)
Number of accepted tran steps =             7257

Maximum value achieved for any signal of each quantity: 
V: V(I35.net57) = 1.453 V
I: I(V0:p) = 10.61 mA

~~~~~~~~~~~~~~~~~~~~~~~~~~~~~~~~~
Post-Transient Simulation Summary
~~~~~~~~~~~~~~~~~~~~~~~~~~~~~~~~~
   -   To further speed up simulation, consider
          add ++aps on command line
   -   Non-default settings that could significantly slow down simulation
          errpreset = conservative, default moderate
~~~~~~~~~~~~~~~~~~~~~~~~~~~~~~~~~


During simulation, the CPU load for active processors is :
         0 (86.7 %)      1 (5.5 %)       2 (7.0 %)       3 (8.4 %)
         4 (42.1 %)      5 (9.0 %)      
        Total: 158.8%
Initial condition solution time: CPU = 0 s, elapsed = 0 s.
Intrinsic tran analysis time:    CPU = 2.55004 s, elapsed = 2.56843 s.
Total time required for tran analysis `tran': CPU = 2.55433 s, elapsed = 2.57641 s, util. = 99.1%.
Time accumulated: CPU = 2.95893 s, elapsed = 3.47309 s.
Peak resident memory used = 273 Mbytes.

finalTimeOP: writing operating point information to rawfile.

Opening the PSF file ../psf/finalTimeOP.info ...
modelParameter: writing model parameter values to rawfile.

Opening the PSF file ../psf/modelParameter.info ...
element: writing instance parameter values to rawfile.

Opening the PSF file ../psf/element.info ...
outputParameter: writing output parameter values to rawfile.

Opening the PSF file ../psf/outputParameter.info ...
designParamVals: writing netlist parameters to rawfile.

Opening the PSFASCII file ../psf/designParamVals.info ...
primitives: writing primitives to rawfile.

Opening the PSFASCII file ../psf/primitives.info.primitives ...
subckts: writing subcircuits to rawfile.

Opening the PSFASCII file ../psf/subckts.info.subckts ...
Licensing Information:
Lic Summary:
[15:52:02.364498] Cdslmd servers:30000@cadence.cnfm.fr
[15:52:02.888867] Feature usage summary:
[15:52:02.888867] Virtuoso_Multi_mode_Simulation


Aggregate audit (3:52:02 PM, Thur May 7, 2026):
Time used: CPU = 3 s, elapsed = 3.56 s, util. = 84.1%.
Time spent in licensing: elapsed = 350 ms, percentage of total = 9.84%.
Peak memory used = 273 Mbytes.
Simulation started at: 3:51:59 PM, Thur May 7, 2026, ended at: 3:52:02 PM, Thur May 7, 2026, with elapsed time (wall clock): 3.56 s.
spectre completes with 0 errors, 1 warning, and 6 notices.


********* LOG ENDS **************
**                             **
