
Spectre (R) Circuit Simulator
Version 24.1.0.198.isr3 64bit -- 6 Jan 2025
Copyright (C) 1989-2024 Cadence Design Systems, Inc. All rights reserved worldwide. Cadence and Spectre are registered trademarks of Cadence Design Systems, Inc. All others are the property of their respective holders.

Includes RSA BSAFE(R) Cryptographic or Security Protocol Software from RSA Security, Inc.

User: carbou   Host: brahms   HostID: E3843D43   PID: 289103
Memory  available: 26.4054 GB  physical: 33.1539 GB
Linux   : AlmaLinux release 9.7 (Moss Jungle Cat)
CPU Type: Intel(R) Core(TM) i5-9500 CPU @ 3.00GHz
        Socket: Processors [Frequency]
        0:       0 [4144.3],  1 [4183.4],  2 [4190.0],  3 [4188.2],  4 [4186.3]
                 5 [4200.0]
        
System load averages (1min, 5min, 15min) : 17.2 %, 16.7 %, 16.2 %
HPC is enabled


Simulating `input.scs' on brahms at 5:10:08 PM, Thur May 7, 2026 (process id: 289103).
Current working directory: /users/enseig/carbou/Documents/S2/EACN/Projet/cadence_ihp_sg13g2/cds/sim/project_EACN_SESI/bandgap/maestro/results/maestro/ExplorerRORun.0.RO/1/cours_EACN_SESI_bandgap_1/netlist
Command line:
    /users/soft/opus/Linux/SPECTRE-24.10.03.198/tools/bin/spectre -64  \
        input.scs +escchars +log ../psf/spectre.out -format psfxl -raw  \
        ../psf  \
        -I/users/soft/techno/dev/IHP/sg13/SG13G2_618_rev1.3.3/lib/TL_SG13/RLCG/spectre/  \
        +aps +mt +lqtimeout 900 -maxw 5 -maxn 5 -env ade  \
        +adespetkn=0001089D13A302B663E41FB550AF0DF415A679A322D5069144BF588C12F604E07EF416DC01A319B562BB63D347D4019D45A362F25FF741BD63D3669567FB4F9242EE79D15D9175FF349864C67B9974D35BED75CA7A8A74D359EB43E118F874D30EA879D118F874D3349879D118F874D33498102DB3B7DF9C5D6400003699  \
        +mts -ahdllibdir  \
        /users/enseig/carbou/Documents/S2/EACN/Projet/cadence_ihp_sg13g2/cds/sim/project_EACN_SESI/bandgap/maestro/results/maestro/ExplorerRORun.0.RO/sharedData/CDS/ahdl/input.ahdlSimDB  \
        +logstatus

Simulation Id: uNraLhWK5nDBi2vv
Licensing Information:
[17:10:08.291209] Configured Lic search path (24.01-s002): 30000@cadence.cnfm.fr

Licensing Information:
[17:10:08.172944] Periodic Lic check successful

Loading /users/soft/opus/Linux/SPECTRE-24.10.03.198/tools.lnx86/cmi/lib/64bit/5.0/libinfineon_sh.so ...
Loading /users/soft/opus/Linux/SPECTRE-24.10.03.198/tools.lnx86/cmi/lib/64bit/5.0/libphilips_I_sh.so ...
Loading /users/soft/opus/Linux/SPECTRE-24.10.03.198/tools.lnx86/cmi/lib/64bit/5.0/libphilips_sh.so ...
Loading /users/soft/opus/Linux/SPECTRE-24.10.03.198/tools.lnx86/cmi/lib/64bit/5.0/libsparam_sh.so ...
Loading /users/soft/opus/Linux/SPECTRE-24.10.03.198/tools.lnx86/cmi/lib/64bit/5.0/libstmodels_sh.so ...
Reading file:  /users/enseig/carbou/Documents/S2/EACN/Projet/cadence_ihp_sg13g2/cds/sim/project_EACN_SESI/bandgap/maestro/results/maestro/ExplorerRORun.0.RO/1/cours_EACN_SESI_bandgap_1/netlist/input.scs
Reading file:  /users/soft/opus/Linux/SPECTRE-24.10.03.198/tools.lnx86/spectre/etc/configs/spectre.cfg
Reading file:  /users/enseig/carbou/Documents/S2/EACN/Projet/cadence_ihp_sg13g2/cds/sim/project_EACN_SESI/bandgap/maestro/results/maestro/ExplorerRORun.0.RO/1/cours_EACN_SESI_bandgap_1/netlist/ade_e.scs
Reading file:  /users/soft/techno/dev/IHP/sg13/SG13G2_618_rev1.3.3/tech/SG13G2_HBT/VBIC/spectre/SG13G2_cornerBIP_vbic.scs
Reading file:  /users/soft/techno/dev/IHP/sg13/SG13G2_618_rev1.3.3/tech/SG13G2_HBT/VBIC/spectre/SG13G2_hbt_vbic.lib
Reading file:  /users/soft/techno/dev/IHP/sg13/SG13G2_618_rev1.3.3/tech/SG13G2_HBT/VBIC/spectre/SG13G2_hbt_stat.scs
Reading file:  /users/soft/techno/dev/IHP/sg13/SG13G2_618_rev1.3.3/tech/SG13G2_HBT/VBIC/spectre/SG13G2_hbt_mm.scs
Reading file:  /users/soft/techno/dev/IHP/sg13/SG13G2_618_rev1.3.3/tech/SG13_MOS/library/spectreG2/cornerMOSlv_psp.scs
Reading file:  /users/soft/techno/dev/IHP/sg13/SG13G2_618_rev1.3.3/tech/SG13_MOS/library/spectreG2/sg13g2_moslv_psp_stat.scs
Reading file:  /users/soft/techno/dev/IHP/sg13/SG13G2_618_rev1.3.3/tech/SG13_MOS/library/spectreG2/sg13g2_moslv_psp_mod.lib
Reading file:  /users/soft/techno/dev/IHP/sg13/SG13G2_618_rev1.3.3/tech/SG13_MOS/library/spectreG2/sg13g2_moslv_psp_parm.scs
Reading file:  /users/soft/techno/dev/IHP/sg13/SG13G2_618_rev1.3.3/tech/SG13_MOS/library/spectreG2/cornerMOShv_psp.scs
Reading file:  /users/soft/techno/dev/IHP/sg13/SG13G2_618_rev1.3.3/tech/SG13_MOS/library/spectreG2/sg13g2_moshv_psp_stat.scs
Reading file:  /users/soft/techno/dev/IHP/sg13/SG13G2_618_rev1.3.3/tech/SG13_MOS/library/spectreG2/sg13g2_moshv_psp_mod.lib
Reading file:  /users/soft/techno/dev/IHP/sg13/SG13G2_618_rev1.3.3/tech/SG13_MOS/library/spectreG2/sg13g2_moshv_psp_parm.scs
Reading file:  /users/soft/techno/dev/IHP/sg13/SG13G2_618_rev1.3.3/tech/SG13_MOS/library/spectreG2/sg13g2_svaricaphv_mosvar_mod.lib
Reading file:  /users/soft/techno/dev/IHP/sg13/SG13G2_618_rev1.3.3/tech/SG13G2_PASSIVES/spectre/SG13_cornerRES.scs
Reading file:  /users/soft/techno/dev/IHP/sg13/SG13G2_618_rev1.3.3/tech/SG13G2_PASSIVES/spectre/SG13_res_mm.scs
Reading file:  /users/soft/techno/dev/IHP/sg13/SG13G2_618_rev1.3.3/tech/SG13G2_PASSIVES/spectre/SG13_res_stat.scs
Reading file:  /users/soft/techno/dev/IHP/sg13/SG13G2_618_rev1.3.3/tech/SG13G2_PASSIVES/spectre/SG13_res.lib
Reading file:  /users/soft/techno/dev/IHP/sg13/SG13G2_618_rev1.3.3/tech/SG13G2_PASSIVES/spectre/SG13_cornerCAP.scs
Reading file:  /users/soft/techno/dev/IHP/sg13/SG13G2_618_rev1.3.3/tech/SG13G2_PASSIVES/spectre/SG13_cap_mm.scs
Reading file:  /users/soft/techno/dev/IHP/sg13/SG13G2_618_rev1.3.3/tech/SG13G2_PASSIVES/spectre/SG13_cap_stat.scs
Reading file:  /users/soft/techno/dev/IHP/sg13/SG13G2_618_rev1.3.3/tech/SG13G2_PASSIVES/spectre/SG13_cap.lib
Reading file:  /users/soft/techno/dev/IHP/sg13/SG13G2_618_rev1.3.3/tech/SG13G2_PASSIVES/spectre/sg13g2_dschottky_nbl1_corner.scs
Reading file:  /users/soft/techno/dev/IHP/sg13/SG13G2_618_rev1.3.3/tech/SG13G2_PASSIVES/spectre/sg13g2_dschottky_nbl1_stat.scs
Reading file:  /users/soft/techno/dev/IHP/sg13/SG13G2_618_rev1.3.3/tech/SG13G2_PASSIVES/spectre/sg13g2_dschottky_nbl1_mod.lib
Reading file:  /users/soft/techno/dev/IHP/sg13/SG13G2_618_rev1.3.3/tech/SG13G2_PASSIVES/spectre/SG13_diodes.lib
Reading file:  /users/soft/techno/dev/IHP/sg13/SG13G2_618_rev1.3.3/tech/SG13_ESD/spectre/SG13_esd.lib
Reading file:  /users/soft/techno/dev/IHP/sg13/SG13G2_618_rev1.3.3/tech/SG13_PASSIVES/spectre/SG13_cornerTSV.scs
Reading file:  /users/soft/techno/dev/IHP/sg13/SG13G2_618_rev1.3.3/tech/SG13_PASSIVES/spectre/SG13_paramsTSV.scs
Reading file:  /users/soft/techno/dev/IHP/sg13/SG13G2_618_rev1.3.3/tech/SG13_PASSIVES/spectre/SG13_tsv.lib
Reading file:  /users/soft/techno/dev/IHP/sg13/SG13G2_618_rev1.3.3/tech/SG13_PASSIVES/spectre/SG13_bondpad.lib

Notice from spectre in `bondpad_model', during circuit read-in.
    "/users/soft/techno/dev/IHP/sg13/SG13G2_618_rev1.3.3/tech/SG13_PASSIVES/spectre/SG13_bondpad.lib" 13: Subcircuit 'bondpad_model' is empty.

Reading file:  /users/enseig/galayko/cours_EACN/projet/cadence_ihp_sg13g2/cds/allFunc.scs
Time for NDB Parsing: CPU = 83.971 ms, elapsed = 492.18 ms.
Time accumulated: CPU = 186.612 ms, elapsed = 492.181 ms.
Peak resident memory used = 195 Mbytes.

Time for Elaboration: CPU = 15.76 ms, elapsed = 17.802 ms.
Time accumulated: CPU = 202.468 ms, elapsed = 510.081 ms.
Peak resident memory used = 204 Mbytes.

 Start ADE Session ID: uNraLhWK5nDBi2vv


Warning from spectre during hierarchy flattening.
    WARNING (SPECTRE-8527): There are some nodes and instances removed from the netlist topology check. Check the circuit and correct the topology. Or use preserve_inst to keep them if necessary.

***********************************************
  Total removed instances 3 ( dangling 3, terminals connected together 0)  

Warning from spectre during hierarchy flattening.
    WARNING (SPECTRE-8529): Dangling instance. R4 is removed.
    WARNING (SPECTRE-8529): Dangling instance. D9_turbo_m4 is removed.
    WARNING (SPECTRE-8529): Dangling instance. D5 is removed.


  Total removed nodes 2 ( dangling nodes 2, floating nodes 0 )

Warning from spectre during hierarchy flattening.
    WARNING (SPECTRE-8530): Dangling node. net12 is removed.
    WARNING (SPECTRE-8530): Dangling node. net7 is removed.

***********************************************
Time for EDB Visiting: CPU = 909 us, elapsed = 3.69382 ms.
Time accumulated: CPU = 203.471 ms, elapsed = 513.867 ms.
Peak resident memory used = 205 Mbytes.


Notice from spectre during topology check.
    Only one connection to node `sub!'.
Notice from spectre during initial setup.
    Multithreading is disabled due to the size of the design being too small.


Netlist title:
        // Point Netlist Generated on: May  7 17:10:06 2026


Global user options:
         psfversion = 1.4.0
            vabstol = 1e-06
            iabstol = 1e-12
               temp = 30
               gmin = 1e-12
             rforce = 1
           maxnotes = 5
           maxwarns = 5
             digits = 5
               cols = 80
             pivrel = 0.001
           sensfile = ../psf/sens.output
     checklimitdest = sqldb
      ignorezerovar = yes
               save = allpub
           currents = all
     subcktprobelvl = 5
       saveahdlvars = all
             reltol = 0.001
               tnom = 27
             scalem = 1
              scale = 1

Scoped user options:

Circuit inventory:
              nodes 14
                bjt 10    
          pspnqs103 3     
           resistor 5     
               vcvs 1     
            vsource 6     

Analysis and control statement inventory:
                 dc 2     
               info 7     

Output statements:
             .probe 0     
           .measure 0     
               save 1     

Design checks inventory:
          paramtest 13    


Notice from spectre during initial setup.
    Protected devices exist and are not included in the circuit inventory.
    4 vsources are shorted because their absolute value is less than or equal to 'vabsshort'.
    APS enabled.

Time for parsing: CPU = 2.769 ms, elapsed = 21.7371 ms.
Time accumulated: CPU = 206.356 ms, elapsed = 537.017 ms.
Peak resident memory used = 209 Mbytes.

~~~~~~~~~~~~~~~~~~~~~~
Pre-Simulation Summary
~~~~~~~~~~~~~~~~~~~~~~
   -   (APS) Multi-threading. The recommended number of threads is 1, consider adding +mt=1 on command line.
~~~~~~~~~~~~~~~~~~~~~~

******************
DC Analysis `dcOp'
******************

Opening the PSF file ../psf/dcOp.dc ...
Important parameter values:
    reltol = 1e-03
    abstol(V) = 1 uV
    abstol(I) = 1 pA
    temp = 30 C
    tnom = 27 C
    tempeffects = all
    gmindc = 1 pS
    rabsshort = 1 mOhm

Maximum value achieved for any signal of each quantity: 
V: V(vdd!) = 1.2 V
I: I(V1:p) = 51.97 uA
Convergence achieved in 20 iterations.
DC simulation time: CPU = 2.738 ms, elapsed = 7.32684 ms.
Total time required for dc analysis `dcOp': CPU = 2.828 ms, elapsed = 7.80392 ms, util. = 36.2%.
Time accumulated: CPU = 217.879 ms, elapsed = 554.836 ms.
Peak resident memory used = 213 Mbytes.

dcOpInfo: writing operating point information to rawfile.

Opening the PSF file ../psf/dcOpInfo.info ...

****************************************
DC Analysis `dc': R1 = (1e+03 -> 50e+03)
****************************************

Opening the PSF file ../psf/dc.dc ...
Important parameter values:
    reltol = 1e-03
    abstol(V) = 1 uV
    abstol(I) = 1 pA
    temp = 30 C
    tnom = 27 C
    tempeffects = all
    gmindc = 1 pS
    rabsshort = 1 mOhm
    dc: R1 = 2.3e+03     (2.65 %), step = 100          (204 m%)
    dc: R1 = 2.4e+03     (2.86 %), step = 100          (204 m%)
    dc: R1 = 2.5e+03     (3.06 %), step = 100          (204 m%)
    dc: R1 = 2.6e+03     (3.27 %), step = 100          (204 m%)
    dc: R1 = 2.7e+03     (3.47 %), step = 100          (204 m%)
    dc: R1 = 2.8e+03     (3.67 %), step = 100          (204 m%)
    dc: R1 = 2.9e+03     (3.88 %), step = 100          (204 m%)
    dc: R1 = 3e+03       (4.08 %), step = 100          (204 m%)
    dc: R1 = 3.1e+03     (4.29 %), step = 100          (204 m%)
    dc: R1 = 3.2e+03     (4.49 %), step = 100          (204 m%)
    dc: R1 = 3.3e+03     (4.69 %), step = 100          (204 m%)
    dc: R1 = 3.4e+03      (4.9 %), step = 100          (204 m%)
    dc: R1 = 3.5e+03      (5.1 %), step = 100          (204 m%)
    dc: R1 = 3.6e+03     (5.31 %), step = 100          (204 m%)
    dc: R1 = 3.7e+03     (5.51 %), step = 100          (204 m%)
    dc: R1 = 3.8e+03     (5.71 %), step = 100          (204 m%)
    dc: R1 = 3.9e+03     (5.92 %), step = 100          (204 m%)
    dc: R1 = 4e+03       (6.12 %), step = 100          (204 m%)
    dc: R1 = 4.1e+03     (6.33 %), step = 100          (204 m%)
    dc: R1 = 4.2e+03     (6.53 %), step = 100          (204 m%)
    dc: R1 = 4.3e+03     (6.73 %), step = 100          (204 m%)
    dc: R1 = 4.4e+03     (6.94 %), step = 100          (204 m%)
    dc: R1 = 4.5e+03     (7.14 %), step = 100          (204 m%)
    dc: R1 = 4.6e+03     (7.35 %), step = 100          (204 m%)
    dc: R1 = 4.7e+03     (7.55 %), step = 100          (204 m%)
    dc: R1 = 4.8e+03     (7.76 %), step = 100          (204 m%)
    dc: R1 = 4.9e+03     (7.96 %), step = 100          (204 m%)
    dc: R1 = 5e+03       (8.16 %), step = 100          (204 m%)
    dc: R1 = 5.1e+03     (8.37 %), step = 100          (204 m%)
    dc: R1 = 5.2e+03     (8.57 %), step = 100          (204 m%)
    dc: R1 = 5.3e+03     (8.78 %), step = 100          (204 m%)
    dc: R1 = 5.4e+03     (8.98 %), step = 100          (204 m%)
    dc: R1 = 5.5e+03     (9.18 %), step = 100          (204 m%)
    dc: R1 = 5.6e+03     (9.39 %), step = 100          (204 m%)
    dc: R1 = 5.7e+03     (9.59 %), step = 100          (204 m%)
    dc: R1 = 5.8e+03      (9.8 %), step = 100          (204 m%)
    dc: R1 = 5.9e+03       (10 %), step = 100          (204 m%)
    dc: R1 = 6e+03       (10.2 %), step = 100          (204 m%)
    dc: R1 = 6.1e+03     (10.4 %), step = 100          (204 m%)
    dc: R1 = 6.2e+03     (10.6 %), step = 100          (204 m%)
    dc: R1 = 6.3e+03     (10.8 %), step = 100          (204 m%)
    dc: R1 = 6.4e+03       (11 %), step = 100          (204 m%)
    dc: R1 = 6.5e+03     (11.2 %), step = 100          (204 m%)
    dc: R1 = 6.6e+03     (11.4 %), step = 100          (204 m%)
    dc: R1 = 6.7e+03     (11.6 %), step = 100          (204 m%)
    dc: R1 = 6.8e+03     (11.8 %), step = 100          (204 m%)
    dc: R1 = 6.9e+03       (12 %), step = 100          (204 m%)
    dc: R1 = 7e+03       (12.2 %), step = 100          (204 m%)
    dc: R1 = 7.1e+03     (12.4 %), step = 100          (204 m%)
    dc: R1 = 7.2e+03     (12.7 %), step = 100          (204 m%)
    dc: R1 = 7.3e+03     (12.9 %), step = 100          (204 m%)
    dc: R1 = 7.4e+03     (13.1 %), step = 100          (204 m%)
    dc: R1 = 7.5e+03     (13.3 %), step = 100          (204 m%)
    dc: R1 = 7.6e+03     (13.5 %), step = 100          (204 m%)
    dc: R1 = 7.7e+03     (13.7 %), step = 100          (204 m%)
    dc: R1 = 7.8e+03     (13.9 %), step = 100          (204 m%)
    dc: R1 = 7.9e+03     (14.1 %), step = 100          (204 m%)
    dc: R1 = 8e+03       (14.3 %), step = 100          (204 m%)
    dc: R1 = 8.1e+03     (14.5 %), step = 100          (204 m%)
    dc: R1 = 8.2e+03     (14.7 %), step = 100          (204 m%)
    dc: R1 = 8.3e+03     (14.9 %), step = 100          (204 m%)
    dc: R1 = 8.4e+03     (15.1 %), step = 100          (204 m%)
    dc: R1 = 8.5e+03     (15.3 %), step = 100          (204 m%)
    dc: R1 = 8.6e+03     (15.5 %), step = 100          (204 m%)
    dc: R1 = 8.7e+03     (15.7 %), step = 100          (204 m%)
    dc: R1 = 8.8e+03     (15.9 %), step = 100          (204 m%)
    dc: R1 = 8.9e+03     (16.1 %), step = 100          (204 m%)
    dc: R1 = 9e+03       (16.3 %), step = 100          (204 m%)
    dc: R1 = 9.1e+03     (16.5 %), step = 100          (204 m%)
    dc: R1 = 9.2e+03     (16.7 %), step = 100          (204 m%)
    dc: R1 = 9.3e+03     (16.9 %), step = 100          (204 m%)
    dc: R1 = 9.4e+03     (17.1 %), step = 100          (204 m%)
    dc: R1 = 9.5e+03     (17.3 %), step = 100          (204 m%)
    dc: R1 = 9.6e+03     (17.6 %), step = 100          (204 m%)
    dc: R1 = 9.7e+03     (17.8 %), step = 100          (204 m%)
    dc: R1 = 9.8e+03       (18 %), step = 100          (204 m%)
    dc: R1 = 9.9e+03     (18.2 %), step = 100          (204 m%)
    dc: R1 = 10e+03      (18.4 %), step = 100          (204 m%)
    dc: R1 = 10.1e+03    (18.6 %), step = 100          (204 m%)
    dc: R1 = 10.2e+03    (18.8 %), step = 100          (204 m%)
    dc: R1 = 10.3e+03      (19 %), step = 100          (204 m%)
    dc: R1 = 10.4e+03    (19.2 %), step = 100          (204 m%)
    dc: R1 = 10.5e+03    (19.4 %), step = 100          (204 m%)
    dc: R1 = 10.6e+03    (19.6 %), step = 100          (204 m%)
    dc: R1 = 10.7e+03    (19.8 %), step = 100          (204 m%)
    dc: R1 = 10.8e+03      (20 %), step = 100          (204 m%)
    dc: R1 = 10.9e+03    (20.2 %), step = 100          (204 m%)
    dc: R1 = 11e+03      (20.4 %), step = 100          (204 m%)
    dc: R1 = 11.1e+03    (20.6 %), step = 100          (204 m%)
    dc: R1 = 11.2e+03    (20.8 %), step = 100          (204 m%)
    dc: R1 = 11.3e+03      (21 %), step = 100          (204 m%)
    dc: R1 = 11.4e+03    (21.2 %), step = 100          (204 m%)
    dc: R1 = 11.5e+03    (21.4 %), step = 100          (204 m%)
    dc: R1 = 11.6e+03    (21.6 %), step = 100          (204 m%)
    dc: R1 = 11.7e+03    (21.8 %), step = 100          (204 m%)
    dc: R1 = 11.8e+03      (22 %), step = 100          (204 m%)
    dc: R1 = 11.9e+03    (22.2 %), step = 100          (204 m%)
    dc: R1 = 12e+03      (22.4 %), step = 100          (204 m%)
    dc: R1 = 12.1e+03    (22.7 %), step = 100          (204 m%)
    dc: R1 = 12.2e+03    (22.9 %), step = 100          (204 m%)
    dc: R1 = 12.3e+03    (23.1 %), step = 100          (204 m%)
    dc: R1 = 12.4e+03    (23.3 %), step = 100          (204 m%)
    dc: R1 = 12.5e+03    (23.5 %), step = 100          (204 m%)
    dc: R1 = 12.6e+03    (23.7 %), step = 100          (204 m%)
    dc: R1 = 12.7e+03    (23.9 %), step = 100          (204 m%)
    dc: R1 = 12.8e+03    (24.1 %), step = 100          (204 m%)
    dc: R1 = 12.9e+03    (24.3 %), step = 100          (204 m%)
    dc: R1 = 13e+03      (24.5 %), step = 100          (204 m%)
    dc: R1 = 13.1e+03    (24.7 %), step = 100          (204 m%)
    dc: R1 = 13.2e+03    (24.9 %), step = 100          (204 m%)
    dc: R1 = 13.3e+03    (25.1 %), step = 100          (204 m%)
    dc: R1 = 13.4e+03    (25.3 %), step = 100          (204 m%)
    dc: R1 = 13.5e+03    (25.5 %), step = 100          (204 m%)
    dc: R1 = 13.6e+03    (25.7 %), step = 100          (204 m%)
    dc: R1 = 13.7e+03    (25.9 %), step = 100          (204 m%)
    dc: R1 = 13.8e+03    (26.1 %), step = 100          (204 m%)
    dc: R1 = 13.9e+03    (26.3 %), step = 100          (204 m%)
    dc: R1 = 14e+03      (26.5 %), step = 100          (204 m%)
    dc: R1 = 14.1e+03    (26.7 %), step = 100          (204 m%)
    dc: R1 = 14.2e+03    (26.9 %), step = 100          (204 m%)
    dc: R1 = 14.3e+03    (27.1 %), step = 100          (204 m%)
    dc: R1 = 14.4e+03    (27.3 %), step = 100          (204 m%)
    dc: R1 = 14.5e+03    (27.6 %), step = 100          (204 m%)
    dc: R1 = 14.6e+03    (27.8 %), step = 100          (204 m%)
    dc: R1 = 14.7e+03      (28 %), step = 100          (204 m%)
    dc: R1 = 14.8e+03    (28.2 %), step = 100          (204 m%)
    dc: R1 = 14.9e+03    (28.4 %), step = 100          (204 m%)
    dc: R1 = 15e+03      (28.6 %), step = 100          (204 m%)
    dc: R1 = 15.1e+03    (28.8 %), step = 100          (204 m%)
    dc: R1 = 15.2e+03      (29 %), step = 100          (204 m%)
    dc: R1 = 15.3e+03    (29.2 %), step = 100          (204 m%)
    dc: R1 = 15.4e+03    (29.4 %), step = 100          (204 m%)
    dc: R1 = 15.5e+03    (29.6 %), step = 100          (204 m%)
    dc: R1 = 15.6e+03    (29.8 %), step = 100          (204 m%)
    dc: R1 = 15.7e+03      (30 %), step = 100          (204 m%)
    dc: R1 = 15.8e+03    (30.2 %), step = 100          (204 m%)
    dc: R1 = 15.9e+03    (30.4 %), step = 100          (204 m%)
    dc: R1 = 16e+03      (30.6 %), step = 100          (204 m%)
    dc: R1 = 16.1e+03    (30.8 %), step = 100          (204 m%)
    dc: R1 = 16.2e+03      (31 %), step = 100          (204 m%)
    dc: R1 = 16.3e+03    (31.2 %), step = 100          (204 m%)
    dc: R1 = 16.4e+03    (31.4 %), step = 100          (204 m%)
    dc: R1 = 16.5e+03    (31.6 %), step = 100          (204 m%)
    dc: R1 = 16.6e+03    (31.8 %), step = 100          (204 m%)
    dc: R1 = 16.7e+03      (32 %), step = 100          (204 m%)
    dc: R1 = 16.8e+03    (32.2 %), step = 100          (204 m%)
    dc: R1 = 16.9e+03    (32.4 %), step = 100          (204 m%)
    dc: R1 = 17e+03      (32.7 %), step = 100          (204 m%)
    dc: R1 = 17.1e+03    (32.9 %), step = 100          (204 m%)
    dc: R1 = 17.2e+03    (33.1 %), step = 100          (204 m%)
    dc: R1 = 17.3e+03    (33.3 %), step = 100          (204 m%)
    dc: R1 = 17.4e+03    (33.5 %), step = 100          (204 m%)
    dc: R1 = 17.5e+03    (33.7 %), step = 100          (204 m%)
    dc: R1 = 17.6e+03    (33.9 %), step = 100          (204 m%)
    dc: R1 = 17.7e+03    (34.1 %), step = 100          (204 m%)
    dc: R1 = 17.8e+03    (34.3 %), step = 100          (204 m%)
    dc: R1 = 17.9e+03    (34.5 %), step = 100          (204 m%)
    dc: R1 = 18e+03      (34.7 %), step = 100          (204 m%)
    dc: R1 = 18.1e+03    (34.9 %), step = 100          (204 m%)
    dc: R1 = 18.2e+03    (35.1 %), step = 100          (204 m%)
    dc: R1 = 18.3e+03    (35.3 %), step = 100          (204 m%)
    dc: R1 = 18.4e+03    (35.5 %), step = 100          (204 m%)
    dc: R1 = 18.5e+03    (35.7 %), step = 100          (204 m%)
    dc: R1 = 18.6e+03    (35.9 %), step = 100          (204 m%)
    dc: R1 = 18.7e+03    (36.1 %), step = 100          (204 m%)
    dc: R1 = 18.8e+03    (36.3 %), step = 100          (204 m%)
    dc: R1 = 18.9e+03    (36.5 %), step = 100          (204 m%)
    dc: R1 = 19e+03      (36.7 %), step = 100          (204 m%)
    dc: R1 = 19.1e+03    (36.9 %), step = 100          (204 m%)
    dc: R1 = 19.2e+03    (37.1 %), step = 100          (204 m%)
    dc: R1 = 19.3e+03    (37.3 %), step = 100          (204 m%)
    dc: R1 = 19.4e+03    (37.6 %), step = 100          (204 m%)
    dc: R1 = 19.5e+03    (37.8 %), step = 100          (204 m%)
    dc: R1 = 19.6e+03      (38 %), step = 100          (204 m%)
    dc: R1 = 19.7e+03    (38.2 %), step = 100          (204 m%)
    dc: R1 = 19.8e+03    (38.4 %), step = 100          (204 m%)
    dc: R1 = 19.9e+03    (38.6 %), step = 100          (204 m%)
    dc: R1 = 20e+03      (38.8 %), step = 100          (204 m%)
    dc: R1 = 20.1e+03      (39 %), step = 100          (204 m%)
    dc: R1 = 20.2e+03    (39.2 %), step = 100          (204 m%)
    dc: R1 = 20.3e+03    (39.4 %), step = 100          (204 m%)
    dc: R1 = 20.4e+03    (39.6 %), step = 100          (204 m%)
    dc: R1 = 20.5e+03    (39.8 %), step = 100          (204 m%)
    dc: R1 = 20.6e+03      (40 %), step = 100          (204 m%)
    dc: R1 = 20.7e+03    (40.2 %), step = 100          (204 m%)
    dc: R1 = 20.8e+03    (40.4 %), step = 100          (204 m%)
    dc: R1 = 20.9e+03    (40.6 %), step = 100          (204 m%)
    dc: R1 = 21e+03      (40.8 %), step = 100          (204 m%)
    dc: R1 = 21.1e+03      (41 %), step = 100          (204 m%)
    dc: R1 = 21.2e+03    (41.2 %), step = 100          (204 m%)
    dc: R1 = 21.3e+03    (41.4 %), step = 100          (204 m%)
    dc: R1 = 21.4e+03    (41.6 %), step = 100          (204 m%)
    dc: R1 = 21.5e+03    (41.8 %), step = 100          (204 m%)
    dc: R1 = 21.6e+03      (42 %), step = 100          (204 m%)
    dc: R1 = 21.7e+03    (42.2 %), step = 100          (204 m%)
    dc: R1 = 21.8e+03    (42.4 %), step = 100          (204 m%)
    dc: R1 = 21.9e+03    (42.7 %), step = 100          (204 m%)
    dc: R1 = 22e+03      (42.9 %), step = 100          (204 m%)
    dc: R1 = 22.1e+03    (43.1 %), step = 100          (204 m%)
    dc: R1 = 22.2e+03    (43.3 %), step = 100          (204 m%)
    dc: R1 = 22.3e+03    (43.5 %), step = 100          (204 m%)
    dc: R1 = 22.4e+03    (43.7 %), step = 100          (204 m%)
    dc: R1 = 22.5e+03    (43.9 %), step = 100          (204 m%)
    dc: R1 = 22.6e+03    (44.1 %), step = 100          (204 m%)
    dc: R1 = 22.7e+03    (44.3 %), step = 100          (204 m%)
    dc: R1 = 22.8e+03    (44.5 %), step = 100          (204 m%)
    dc: R1 = 22.9e+03    (44.7 %), step = 100          (204 m%)
    dc: R1 = 23e+03      (44.9 %), step = 100          (204 m%)
    dc: R1 = 23.1e+03    (45.1 %), step = 100          (204 m%)
    dc: R1 = 23.2e+03    (45.3 %), step = 100          (204 m%)
    dc: R1 = 23.3e+03    (45.5 %), step = 100          (204 m%)
    dc: R1 = 23.4e+03    (45.7 %), step = 100          (204 m%)
    dc: R1 = 23.5e+03    (45.9 %), step = 100          (204 m%)
    dc: R1 = 23.6e+03    (46.1 %), step = 100          (204 m%)
    dc: R1 = 23.7e+03    (46.3 %), step = 100          (204 m%)
    dc: R1 = 23.8e+03    (46.5 %), step = 100          (204 m%)
    dc: R1 = 23.9e+03    (46.7 %), step = 100          (204 m%)
    dc: R1 = 24e+03      (46.9 %), step = 100          (204 m%)
    dc: R1 = 24.1e+03    (47.1 %), step = 100          (204 m%)
    dc: R1 = 24.2e+03    (47.3 %), step = 100          (204 m%)
    dc: R1 = 24.3e+03    (47.6 %), step = 100          (204 m%)
    dc: R1 = 24.4e+03    (47.8 %), step = 100          (204 m%)
    dc: R1 = 24.5e+03      (48 %), step = 100          (204 m%)
    dc: R1 = 24.6e+03    (48.2 %), step = 100          (204 m%)
    dc: R1 = 24.7e+03    (48.4 %), step = 100          (204 m%)
    dc: R1 = 24.8e+03    (48.6 %), step = 100          (204 m%)
    dc: R1 = 24.9e+03    (48.8 %), step = 100          (204 m%)
    dc: R1 = 25e+03        (49 %), step = 100          (204 m%)
    dc: R1 = 25.1e+03    (49.2 %), step = 100          (204 m%)
    dc: R1 = 25.2e+03    (49.4 %), step = 100          (204 m%)
    dc: R1 = 25.3e+03    (49.6 %), step = 100          (204 m%)
    dc: R1 = 25.4e+03    (49.8 %), step = 100          (204 m%)
    dc: R1 = 25.5e+03      (50 %), step = 100          (204 m%)
    dc: R1 = 25.6e+03    (50.2 %), step = 100          (204 m%)
    dc: R1 = 25.7e+03    (50.4 %), step = 100          (204 m%)
    dc: R1 = 25.8e+03    (50.6 %), step = 100          (204 m%)
    dc: R1 = 25.9e+03    (50.8 %), step = 100          (204 m%)
    dc: R1 = 26e+03        (51 %), step = 100          (204 m%)
    dc: R1 = 26.1e+03    (51.2 %), step = 100          (204 m%)
    dc: R1 = 26.2e+03    (51.4 %), step = 100          (204 m%)
    dc: R1 = 26.3e+03    (51.6 %), step = 100          (204 m%)
    dc: R1 = 26.4e+03    (51.8 %), step = 100          (204 m%)
    dc: R1 = 26.5e+03      (52 %), step = 100          (204 m%)
    dc: R1 = 26.6e+03    (52.2 %), step = 100          (204 m%)
    dc: R1 = 26.7e+03    (52.4 %), step = 100          (204 m%)
    dc: R1 = 26.8e+03    (52.7 %), step = 100          (204 m%)
    dc: R1 = 26.9e+03    (52.9 %), step = 100          (204 m%)
    dc: R1 = 27e+03      (53.1 %), step = 100          (204 m%)
    dc: R1 = 27.1e+03    (53.3 %), step = 100          (204 m%)
    dc: R1 = 27.2e+03    (53.5 %), step = 100          (204 m%)
    dc: R1 = 27.3e+03    (53.7 %), step = 100          (204 m%)
    dc: R1 = 27.4e+03    (53.9 %), step = 100          (204 m%)
    dc: R1 = 27.5e+03    (54.1 %), step = 100          (204 m%)
    dc: R1 = 27.6e+03    (54.3 %), step = 100          (204 m%)
    dc: R1 = 27.7e+03    (54.5 %), step = 100          (204 m%)
    dc: R1 = 27.8e+03    (54.7 %), step = 100          (204 m%)
    dc: R1 = 27.9e+03    (54.9 %), step = 100          (204 m%)
    dc: R1 = 28e+03      (55.1 %), step = 100          (204 m%)
    dc: R1 = 28.1e+03    (55.3 %), step = 100          (204 m%)
    dc: R1 = 28.2e+03    (55.5 %), step = 100          (204 m%)
    dc: R1 = 28.3e+03    (55.7 %), step = 100          (204 m%)
    dc: R1 = 28.4e+03    (55.9 %), step = 100          (204 m%)
    dc: R1 = 28.5e+03    (56.1 %), step = 100          (204 m%)
    dc: R1 = 28.6e+03    (56.3 %), step = 100          (204 m%)
    dc: R1 = 28.7e+03    (56.5 %), step = 100          (204 m%)
    dc: R1 = 28.8e+03    (56.7 %), step = 100          (204 m%)
    dc: R1 = 28.9e+03    (56.9 %), step = 100          (204 m%)
    dc: R1 = 29e+03      (57.1 %), step = 100          (204 m%)
    dc: R1 = 29.1e+03    (57.3 %), step = 100          (204 m%)
    dc: R1 = 29.2e+03    (57.6 %), step = 100          (204 m%)
    dc: R1 = 29.3e+03    (57.8 %), step = 100          (204 m%)
    dc: R1 = 29.4e+03      (58 %), step = 100          (204 m%)
    dc: R1 = 29.5e+03    (58.2 %), step = 100          (204 m%)
    dc: R1 = 29.6e+03    (58.4 %), step = 100          (204 m%)
    dc: R1 = 29.7e+03    (58.6 %), step = 100          (204 m%)
    dc: R1 = 29.8e+03    (58.8 %), step = 100          (204 m%)
    dc: R1 = 29.9e+03      (59 %), step = 100          (204 m%)
    dc: R1 = 30e+03      (59.2 %), step = 100          (204 m%)
    dc: R1 = 30.1e+03    (59.4 %), step = 100          (204 m%)
    dc: R1 = 30.2e+03    (59.6 %), step = 100          (204 m%)
    dc: R1 = 30.3e+03    (59.8 %), step = 100          (204 m%)
    dc: R1 = 30.4e+03      (60 %), step = 100          (204 m%)
    dc: R1 = 30.5e+03    (60.2 %), step = 100          (204 m%)
    dc: R1 = 30.6e+03    (60.4 %), step = 100          (204 m%)
    dc: R1 = 30.7e+03    (60.6 %), step = 100          (204 m%)
    dc: R1 = 30.8e+03    (60.8 %), step = 100          (204 m%)
    dc: R1 = 30.9e+03      (61 %), step = 100          (204 m%)
    dc: R1 = 31e+03      (61.2 %), step = 100          (204 m%)
    dc: R1 = 31.1e+03    (61.4 %), step = 100          (204 m%)
    dc: R1 = 31.2e+03    (61.6 %), step = 100          (204 m%)
    dc: R1 = 31.3e+03    (61.8 %), step = 100          (204 m%)
    dc: R1 = 31.4e+03      (62 %), step = 100          (204 m%)
    dc: R1 = 31.5e+03    (62.2 %), step = 100          (204 m%)
    dc: R1 = 31.6e+03    (62.4 %), step = 100          (204 m%)
    dc: R1 = 31.7e+03    (62.7 %), step = 100          (204 m%)
    dc: R1 = 31.8e+03    (62.9 %), step = 100          (204 m%)
    dc: R1 = 31.9e+03    (63.1 %), step = 100          (204 m%)
    dc: R1 = 32e+03      (63.3 %), step = 100          (204 m%)
    dc: R1 = 32.1e+03    (63.5 %), step = 100          (204 m%)
    dc: R1 = 32.2e+03    (63.7 %), step = 100          (204 m%)
    dc: R1 = 32.3e+03    (63.9 %), step = 100          (204 m%)
    dc: R1 = 32.4e+03    (64.1 %), step = 100          (204 m%)
    dc: R1 = 32.5e+03    (64.3 %), step = 100          (204 m%)
    dc: R1 = 32.6e+03    (64.5 %), step = 100          (204 m%)
    dc: R1 = 32.7e+03    (64.7 %), step = 100          (204 m%)
    dc: R1 = 32.8e+03    (64.9 %), step = 100          (204 m%)
    dc: R1 = 32.9e+03    (65.1 %), step = 100          (204 m%)
    dc: R1 = 33e+03      (65.3 %), step = 100          (204 m%)
    dc: R1 = 33.1e+03    (65.5 %), step = 100          (204 m%)
    dc: R1 = 33.2e+03    (65.7 %), step = 100          (204 m%)
    dc: R1 = 33.3e+03    (65.9 %), step = 100          (204 m%)
    dc: R1 = 33.4e+03    (66.1 %), step = 100          (204 m%)
    dc: R1 = 33.5e+03    (66.3 %), step = 100          (204 m%)
    dc: R1 = 33.6e+03    (66.5 %), step = 100          (204 m%)
    dc: R1 = 33.7e+03    (66.7 %), step = 100          (204 m%)
    dc: R1 = 33.8e+03    (66.9 %), step = 100          (204 m%)
    dc: R1 = 33.9e+03    (67.1 %), step = 100          (204 m%)
    dc: R1 = 34e+03      (67.3 %), step = 100          (204 m%)
    dc: R1 = 34.1e+03    (67.6 %), step = 100          (204 m%)
    dc: R1 = 34.2e+03    (67.8 %), step = 100          (204 m%)
    dc: R1 = 34.3e+03      (68 %), step = 100          (204 m%)
    dc: R1 = 34.4e+03    (68.2 %), step = 100          (204 m%)
    dc: R1 = 34.5e+03    (68.4 %), step = 100          (204 m%)
    dc: R1 = 34.6e+03    (68.6 %), step = 100          (204 m%)
    dc: R1 = 34.7e+03    (68.8 %), step = 100          (204 m%)
    dc: R1 = 34.8e+03      (69 %), step = 100          (204 m%)
    dc: R1 = 34.9e+03    (69.2 %), step = 100          (204 m%)
    dc: R1 = 35e+03      (69.4 %), step = 100          (204 m%)
    dc: R1 = 35.1e+03    (69.6 %), step = 100          (204 m%)
    dc: R1 = 35.2e+03    (69.8 %), step = 100          (204 m%)
    dc: R1 = 35.3e+03      (70 %), step = 100          (204 m%)
    dc: R1 = 35.4e+03    (70.2 %), step = 100          (204 m%)
    dc: R1 = 35.5e+03    (70.4 %), step = 100          (204 m%)
    dc: R1 = 35.6e+03    (70.6 %), step = 100          (204 m%)
    dc: R1 = 35.7e+03    (70.8 %), step = 100          (204 m%)
    dc: R1 = 35.8e+03      (71 %), step = 100          (204 m%)
    dc: R1 = 35.9e+03    (71.2 %), step = 100          (204 m%)
    dc: R1 = 36e+03      (71.4 %), step = 100          (204 m%)
    dc: R1 = 36.1e+03    (71.6 %), step = 100          (204 m%)
    dc: R1 = 36.2e+03    (71.8 %), step = 100          (204 m%)
    dc: R1 = 36.3e+03      (72 %), step = 100          (204 m%)
    dc: R1 = 36.4e+03    (72.2 %), step = 100          (204 m%)
    dc: R1 = 36.5e+03    (72.4 %), step = 100          (204 m%)
    dc: R1 = 36.6e+03    (72.7 %), step = 100          (204 m%)
    dc: R1 = 36.7e+03    (72.9 %), step = 100          (204 m%)
    dc: R1 = 36.8e+03    (73.1 %), step = 100          (204 m%)
    dc: R1 = 36.9e+03    (73.3 %), step = 100          (204 m%)
    dc: R1 = 37e+03      (73.5 %), step = 100          (204 m%)
    dc: R1 = 37.1e+03    (73.7 %), step = 100          (204 m%)
    dc: R1 = 37.2e+03    (73.9 %), step = 100          (204 m%)
    dc: R1 = 37.3e+03    (74.1 %), step = 100          (204 m%)
    dc: R1 = 37.4e+03    (74.3 %), step = 100          (204 m%)
    dc: R1 = 37.5e+03    (74.5 %), step = 100          (204 m%)
    dc: R1 = 37.6e+03    (74.7 %), step = 100          (204 m%)
    dc: R1 = 37.7e+03    (74.9 %), step = 100          (204 m%)
    dc: R1 = 37.8e+03    (75.1 %), step = 100          (204 m%)
    dc: R1 = 37.9e+03    (75.3 %), step = 100          (204 m%)
    dc: R1 = 38e+03      (75.5 %), step = 100          (204 m%)
    dc: R1 = 38.1e+03    (75.7 %), step = 100          (204 m%)
    dc: R1 = 38.2e+03    (75.9 %), step = 100          (204 m%)
    dc: R1 = 38.3e+03    (76.1 %), step = 100          (204 m%)
    dc: R1 = 38.4e+03    (76.3 %), step = 100          (204 m%)
    dc: R1 = 38.5e+03    (76.5 %), step = 100          (204 m%)
    dc: R1 = 38.6e+03    (76.7 %), step = 100          (204 m%)
    dc: R1 = 38.7e+03    (76.9 %), step = 100          (204 m%)
    dc: R1 = 38.8e+03    (77.1 %), step = 100          (204 m%)
    dc: R1 = 38.9e+03    (77.3 %), step = 100          (204 m%)
    dc: R1 = 39e+03      (77.6 %), step = 100          (204 m%)
    dc: R1 = 39.1e+03    (77.8 %), step = 100          (204 m%)
    dc: R1 = 39.2e+03      (78 %), step = 100          (204 m%)
    dc: R1 = 39.3e+03    (78.2 %), step = 100          (204 m%)
    dc: R1 = 39.4e+03    (78.4 %), step = 100          (204 m%)
    dc: R1 = 39.5e+03    (78.6 %), step = 100          (204 m%)
    dc: R1 = 39.6e+03    (78.8 %), step = 100          (204 m%)
    dc: R1 = 39.7e+03      (79 %), step = 100          (204 m%)
    dc: R1 = 39.8e+03    (79.2 %), step = 100          (204 m%)
    dc: R1 = 39.9e+03    (79.4 %), step = 100          (204 m%)
    dc: R1 = 40e+03      (79.6 %), step = 100          (204 m%)
    dc: R1 = 40.1e+03    (79.8 %), step = 100          (204 m%)
    dc: R1 = 40.2e+03      (80 %), step = 100          (204 m%)
    dc: R1 = 40.3e+03    (80.2 %), step = 100          (204 m%)
    dc: R1 = 40.4e+03    (80.4 %), step = 100          (204 m%)
    dc: R1 = 40.5e+03    (80.6 %), step = 100          (204 m%)
    dc: R1 = 40.6e+03    (80.8 %), step = 100          (204 m%)
    dc: R1 = 40.7e+03      (81 %), step = 100          (204 m%)
    dc: R1 = 40.8e+03    (81.2 %), step = 100          (204 m%)
    dc: R1 = 40.9e+03    (81.4 %), step = 100          (204 m%)
    dc: R1 = 41e+03      (81.6 %), step = 100          (204 m%)
    dc: R1 = 41.1e+03    (81.8 %), step = 100          (204 m%)
    dc: R1 = 41.2e+03      (82 %), step = 100          (204 m%)
    dc: R1 = 41.3e+03    (82.2 %), step = 100          (204 m%)
    dc: R1 = 41.4e+03    (82.4 %), step = 100          (204 m%)
    dc: R1 = 41.5e+03    (82.7 %), step = 100          (204 m%)
    dc: R1 = 41.6e+03    (82.9 %), step = 100          (204 m%)
    dc: R1 = 41.7e+03    (83.1 %), step = 100          (204 m%)
    dc: R1 = 41.8e+03    (83.3 %), step = 100          (204 m%)
    dc: R1 = 41.9e+03    (83.5 %), step = 100          (204 m%)
    dc: R1 = 42e+03      (83.7 %), step = 100          (204 m%)
    dc: R1 = 42.1e+03    (83.9 %), step = 100          (204 m%)
    dc: R1 = 42.2e+03    (84.1 %), step = 100          (204 m%)
    dc: R1 = 42.3e+03    (84.3 %), step = 100          (204 m%)
    dc: R1 = 42.4e+03    (84.5 %), step = 100          (204 m%)
    dc: R1 = 42.5e+03    (84.7 %), step = 100          (204 m%)
    dc: R1 = 42.6e+03    (84.9 %), step = 100          (204 m%)
    dc: R1 = 42.7e+03    (85.1 %), step = 100          (204 m%)
    dc: R1 = 42.8e+03    (85.3 %), step = 100          (204 m%)
    dc: R1 = 42.9e+03    (85.5 %), step = 100          (204 m%)
    dc: R1 = 43e+03      (85.7 %), step = 100          (204 m%)
    dc: R1 = 43.1e+03    (85.9 %), step = 100          (204 m%)
    dc: R1 = 43.2e+03    (86.1 %), step = 100          (204 m%)
    dc: R1 = 43.3e+03    (86.3 %), step = 100          (204 m%)
    dc: R1 = 43.4e+03    (86.5 %), step = 100          (204 m%)
    dc: R1 = 43.5e+03    (86.7 %), step = 100          (204 m%)
    dc: R1 = 43.6e+03    (86.9 %), step = 100          (204 m%)
    dc: R1 = 43.7e+03    (87.1 %), step = 100          (204 m%)
    dc: R1 = 43.8e+03    (87.3 %), step = 100          (204 m%)
    dc: R1 = 43.9e+03    (87.6 %), step = 100          (204 m%)
    dc: R1 = 44e+03      (87.8 %), step = 100          (204 m%)
    dc: R1 = 44.1e+03      (88 %), step = 100          (204 m%)
    dc: R1 = 44.2e+03    (88.2 %), step = 100          (204 m%)
    dc: R1 = 44.3e+03    (88.4 %), step = 100          (204 m%)
    dc: R1 = 44.4e+03    (88.6 %), step = 100          (204 m%)
    dc: R1 = 44.5e+03    (88.8 %), step = 100          (204 m%)
    dc: R1 = 44.6e+03      (89 %), step = 100          (204 m%)
    dc: R1 = 44.7e+03    (89.2 %), step = 100          (204 m%)
    dc: R1 = 44.8e+03    (89.4 %), step = 100          (204 m%)
    dc: R1 = 44.9e+03    (89.6 %), step = 100          (204 m%)
    dc: R1 = 45e+03      (89.8 %), step = 100          (204 m%)
    dc: R1 = 45.1e+03      (90 %), step = 100          (204 m%)
    dc: R1 = 45.2e+03    (90.2 %), step = 100          (204 m%)
    dc: R1 = 45.3e+03    (90.4 %), step = 100          (204 m%)
    dc: R1 = 45.4e+03    (90.6 %), step = 100          (204 m%)
    dc: R1 = 45.5e+03    (90.8 %), step = 100          (204 m%)
    dc: R1 = 45.6e+03      (91 %), step = 100          (204 m%)
    dc: R1 = 45.7e+03    (91.2 %), step = 100          (204 m%)
    dc: R1 = 45.8e+03    (91.4 %), step = 100          (204 m%)
    dc: R1 = 45.9e+03    (91.6 %), step = 100          (204 m%)
    dc: R1 = 46e+03      (91.8 %), step = 100          (204 m%)
    dc: R1 = 46.1e+03      (92 %), step = 100          (204 m%)
    dc: R1 = 46.2e+03    (92.2 %), step = 100          (204 m%)
    dc: R1 = 46.3e+03    (92.4 %), step = 100          (204 m%)
    dc: R1 = 46.4e+03    (92.7 %), step = 100          (204 m%)
    dc: R1 = 46.5e+03    (92.9 %), step = 100          (204 m%)
    dc: R1 = 46.6e+03    (93.1 %), step = 100          (204 m%)
    dc: R1 = 46.7e+03    (93.3 %), step = 100          (204 m%)
    dc: R1 = 46.8e+03    (93.5 %), step = 100          (204 m%)
    dc: R1 = 46.9e+03    (93.7 %), step = 100          (204 m%)
    dc: R1 = 47e+03      (93.9 %), step = 100          (204 m%)
    dc: R1 = 47.1e+03    (94.1 %), step = 100          (204 m%)
    dc: R1 = 47.2e+03    (94.3 %), step = 100          (204 m%)
    dc: R1 = 47.3e+03    (94.5 %), step = 100          (204 m%)
    dc: R1 = 47.4e+03    (94.7 %), step = 100          (204 m%)
    dc: R1 = 47.5e+03    (94.9 %), step = 100          (204 m%)
    dc: R1 = 47.6e+03    (95.1 %), step = 100          (204 m%)
    dc: R1 = 47.7e+03    (95.3 %), step = 100          (204 m%)
    dc: R1 = 47.8e+03    (95.5 %), step = 100          (204 m%)
    dc: R1 = 47.9e+03    (95.7 %), step = 100          (204 m%)
    dc: R1 = 48e+03      (95.9 %), step = 100          (204 m%)
    dc: R1 = 48.1e+03    (96.1 %), step = 100          (204 m%)
    dc: R1 = 48.2e+03    (96.3 %), step = 100          (204 m%)
    dc: R1 = 48.3e+03    (96.5 %), step = 100          (204 m%)
    dc: R1 = 48.4e+03    (96.7 %), step = 100          (204 m%)
    dc: R1 = 48.5e+03    (96.9 %), step = 100          (204 m%)
    dc: R1 = 48.6e+03    (97.1 %), step = 100          (204 m%)
    dc: R1 = 48.7e+03    (97.3 %), step = 100          (204 m%)
    dc: R1 = 48.8e+03    (97.6 %), step = 100          (204 m%)
    dc: R1 = 48.9e+03    (97.8 %), step = 100          (204 m%)
    dc: R1 = 49e+03        (98 %), step = 100          (204 m%)
    dc: R1 = 49.1e+03    (98.2 %), step = 100          (204 m%)
    dc: R1 = 49.2e+03    (98.4 %), step = 100          (204 m%)
    dc: R1 = 49.3e+03    (98.6 %), step = 100          (204 m%)
    dc: R1 = 49.4e+03    (98.8 %), step = 100          (204 m%)
    dc: R1 = 49.5e+03      (99 %), step = 100          (204 m%)
    dc: R1 = 49.6e+03    (99.2 %), step = 100          (204 m%)
    dc: R1 = 49.7e+03    (99.4 %), step = 100          (204 m%)
    dc: R1 = 49.8e+03    (99.6 %), step = 100          (204 m%)
    dc: R1 = 49.9e+03    (99.8 %), step = 100          (204 m%)
    dc: R1 = 50e+03       (100 %), step = 100          (204 m%)

Maximum value achieved for any signal of each quantity: 
V: V(vdd!) = 1.2 V
I: I(V1:p) = 50.46 uA
DC simulation time: CPU = 74.368 ms, elapsed = 161.499 ms.

Notice from spectre at R1 = 50e+03 during DC analysis `dc'.
    The value of parameter 'R1' has been reset to the original value 1000.

Total time required for dc analysis `dc': CPU = 74.391 ms, elapsed = 161.52 ms, util. = 46.1%.
Time accumulated: CPU = 294.344 ms, elapsed = 722.521 ms.
Peak resident memory used = 214 Mbytes.

modelParameter: writing model parameter values to rawfile.

Opening the PSF file ../psf/modelParameter.info ...
element: writing instance parameter values to rawfile.

Opening the PSF file ../psf/element.info ...
outputParameter: writing output parameter values to rawfile.

Opening the PSF file ../psf/outputParameter.info ...
designParamVals: writing netlist parameters to rawfile.

Opening the PSFASCII file ../psf/designParamVals.info ...
primitives: writing primitives to rawfile.

Opening the PSFASCII file ../psf/primitives.info.primitives ...
subckts: writing subcircuits to rawfile.

Opening the PSFASCII file ../psf/subckts.info.subckts ...
Licensing Information:
Lic Summary:
[17:10:09.072547] Cdslmd servers:30000@cadence.cnfm.fr
[17:10:09.072576] Feature usage summary:
[17:10:09.072577] Virtuoso_Multi_mode_Simulation


Aggregate audit (5:10:09 PM, Thur May 7, 2026):
Time used: CPU = 307 ms, elapsed = 761 ms, util. = 40.3%.
Time spent in licensing: elapsed = 345 ms, percentage of total = 45.3%.
Peak memory used = 216 Mbytes.
Simulation started at: 5:10:08 PM, Thur May 7, 2026, ended at: 5:10:09 PM, Thur May 7, 2026, with elapsed time (wall clock): 761 ms.
spectre completes with 0 errors, 6 warnings, and 8 notices.


********* LOG ENDS **************
**                             **
