
Spectre (R) Circuit Simulator
Version 24.1.0.198.isr3 64bit -- 6 Jan 2025
Copyright (C) 1989-2024 Cadence Design Systems, Inc. All rights reserved worldwide. Cadence and Spectre are registered trademarks of Cadence Design Systems, Inc. All others are the property of their respective holders.

Includes RSA BSAFE(R) Cryptographic or Security Protocol Software from RSA Security, Inc.

User: carbou   Host: berwald   HostID: E3846B43   PID: 36138
Memory  available: 128.6613 GB  physical: 133.8285 GB
Linux   : AlmaLinux release 9.7 (Moss Jungle Cat)
CPU Type: Intel(R) Core(TM) Ultra 7 265
        Socket: Processors [Frequency]
        0:       0 [2200.1],  1 [800.0],  2 [5100.0],  3 [800.0],  4 [2200.0]
                 5 [2188.9],  6 [2200.0],  7 [1995.2],  8 [800.0],  9 [800.0]
                10 [1799.0], 11 [1801.7], 12 [800.0], 13 [1403.0], 14 [800.0]
                15 [1403.9], 16 [4619.5], 17 [800.0], 18 [1399.3], 19 [4582.0]
        
System load averages (1min, 5min, 15min) : 7.5 %, 5.8 %, 4.2 %
HPC is enabled


Simulating `input.scs' on berwald at 5:28:24 PM, Thur Apr 9, 2026 (process id: 36138).
Current working directory: /users/enseig/carbou/Documents/S2/EACN/TP3/cadence_ihp_sg13g2/cds/sim/cours_EACN_SESI/quad_resference/maestro/results/maestro/ExplorerRun.0/1/cours_EACN_SESI_quad_resference_1/netlist
Command line:
    /users/soft/opus/Linux/SPECTRE-24.10.03.198/tools/bin/spectre -64  \
        input.scs +escchars +log ../psf/spectre.out -format psfxl -raw  \
        ../psf  \
        -I/users/soft/techno/dev/IHP/sg13/SG13G2_618_rev1.3.3/lib/TL_SG13/RLCG/spectre/  \
        +aps +mt +lqtimeout 900 -maxw 5 -maxn 5 -env ade  \
        +adespetkn=0001089D13A302B663E41FB550AF0DF415A679A322D5069144BF588C12F604E07EF416DC01A319B562BB63D301D8479145A353CD4AD54D9B6EF264CB67E84F9265CF79D15D9175FF349864C67B9974D35BED6ACA1E9D10D355F443E118F874D30EA879D118F874D3349879D118F874D334981006DD6FB1445D4F00003695  \
        +mts -ahdllibdir  \
        /users/enseig/carbou/Documents/S2/EACN/TP3/cadence_ihp_sg13g2/cds/sim/cours_EACN_SESI/quad_resference/maestro/results/maestro/ExplorerRun.0/sharedData/CDS/ahdl/input.ahdlSimDB  \
        +logstatus

Simulation Id: 3BkepvZj9HDQLMQW
Licensing Information:
[17:28:24.291265] Configured Lic search path (24.01-s002): 30000@cadence.cnfm.fr

Licensing Information:
[17:28:24.030488] Periodic Lic check successful

Loading /users/soft/opus/Linux/SPECTRE-24.10.03.198/tools.lnx86/cmi/lib/64bit/5.0/libinfineon_sh.so ...
Loading /users/soft/opus/Linux/SPECTRE-24.10.03.198/tools.lnx86/cmi/lib/64bit/5.0/libphilips_I_sh.so ...
Loading /users/soft/opus/Linux/SPECTRE-24.10.03.198/tools.lnx86/cmi/lib/64bit/5.0/libphilips_sh.so ...
Loading /users/soft/opus/Linux/SPECTRE-24.10.03.198/tools.lnx86/cmi/lib/64bit/5.0/libsparam_sh.so ...
Loading /users/soft/opus/Linux/SPECTRE-24.10.03.198/tools.lnx86/cmi/lib/64bit/5.0/libstmodels_sh.so ...
Reading file:  /users/enseig/carbou/Documents/S2/EACN/TP3/cadence_ihp_sg13g2/cds/sim/cours_EACN_SESI/quad_resference/maestro/results/maestro/ExplorerRun.0/1/cours_EACN_SESI_quad_resference_1/netlist/input.scs
Reading file:  /users/soft/opus/Linux/SPECTRE-24.10.03.198/tools.lnx86/spectre/etc/configs/spectre.cfg
Reading file:  /users/enseig/carbou/Documents/S2/EACN/TP3/cadence_ihp_sg13g2/cds/sim/cours_EACN_SESI/quad_resference/maestro/results/maestro/ExplorerRun.0/1/cours_EACN_SESI_quad_resference_1/netlist/ade_e.scs
Reading file:  /users/soft/techno/dev/IHP/sg13/SG13G2_618_rev1.3.3/tech/SG13G2_HBT/VBIC/spectre/SG13G2_cornerBIP_vbic.scs
Reading file:  /users/soft/techno/dev/IHP/sg13/SG13G2_618_rev1.3.3/tech/SG13G2_HBT/VBIC/spectre/SG13G2_hbt_vbic.lib
Reading file:  /users/soft/techno/dev/IHP/sg13/SG13G2_618_rev1.3.3/tech/SG13G2_HBT/VBIC/spectre/SG13G2_hbt_stat.scs
Reading file:  /users/soft/techno/dev/IHP/sg13/SG13G2_618_rev1.3.3/tech/SG13G2_HBT/VBIC/spectre/SG13G2_hbt_mm.scs
Reading file:  /users/soft/techno/dev/IHP/sg13/SG13G2_618_rev1.3.3/tech/SG13_MOS/library/spectreG2/cornerMOSlv_psp.scs
Reading file:  /users/soft/techno/dev/IHP/sg13/SG13G2_618_rev1.3.3/tech/SG13_MOS/library/spectreG2/sg13g2_moslv_psp_stat.scs
Reading file:  /users/soft/techno/dev/IHP/sg13/SG13G2_618_rev1.3.3/tech/SG13_MOS/library/spectreG2/sg13g2_moslv_psp_mod.lib
Reading file:  /users/soft/techno/dev/IHP/sg13/SG13G2_618_rev1.3.3/tech/SG13_MOS/library/spectreG2/sg13g2_moslv_psp_parm.scs
Reading file:  /users/soft/techno/dev/IHP/sg13/SG13G2_618_rev1.3.3/tech/SG13_MOS/library/spectreG2/cornerMOShv_psp.scs
Reading file:  /users/soft/techno/dev/IHP/sg13/SG13G2_618_rev1.3.3/tech/SG13_MOS/library/spectreG2/sg13g2_moshv_psp_stat.scs
Reading file:  /users/soft/techno/dev/IHP/sg13/SG13G2_618_rev1.3.3/tech/SG13_MOS/library/spectreG2/sg13g2_moshv_psp_mod.lib
Reading file:  /users/soft/techno/dev/IHP/sg13/SG13G2_618_rev1.3.3/tech/SG13_MOS/library/spectreG2/sg13g2_moshv_psp_parm.scs
Reading file:  /users/soft/techno/dev/IHP/sg13/SG13G2_618_rev1.3.3/tech/SG13_MOS/library/spectreG2/sg13g2_svaricaphv_mosvar_mod.lib
Reading file:  /users/soft/techno/dev/IHP/sg13/SG13G2_618_rev1.3.3/tech/SG13G2_PASSIVES/spectre/SG13_cornerRES.scs
Reading file:  /users/soft/techno/dev/IHP/sg13/SG13G2_618_rev1.3.3/tech/SG13G2_PASSIVES/spectre/SG13_res_mm.scs
Reading file:  /users/soft/techno/dev/IHP/sg13/SG13G2_618_rev1.3.3/tech/SG13G2_PASSIVES/spectre/SG13_res_stat.scs
Reading file:  /users/soft/techno/dev/IHP/sg13/SG13G2_618_rev1.3.3/tech/SG13G2_PASSIVES/spectre/SG13_res.lib
Reading file:  /users/soft/techno/dev/IHP/sg13/SG13G2_618_rev1.3.3/tech/SG13G2_PASSIVES/spectre/SG13_cornerCAP.scs
Reading file:  /users/soft/techno/dev/IHP/sg13/SG13G2_618_rev1.3.3/tech/SG13G2_PASSIVES/spectre/SG13_cap_mm.scs
Reading file:  /users/soft/techno/dev/IHP/sg13/SG13G2_618_rev1.3.3/tech/SG13G2_PASSIVES/spectre/SG13_cap_stat.scs
Reading file:  /users/soft/techno/dev/IHP/sg13/SG13G2_618_rev1.3.3/tech/SG13G2_PASSIVES/spectre/SG13_cap.lib
Reading file:  /users/soft/techno/dev/IHP/sg13/SG13G2_618_rev1.3.3/tech/SG13G2_PASSIVES/spectre/sg13g2_dschottky_nbl1_corner.scs
Reading file:  /users/soft/techno/dev/IHP/sg13/SG13G2_618_rev1.3.3/tech/SG13G2_PASSIVES/spectre/sg13g2_dschottky_nbl1_stat.scs
Reading file:  /users/soft/techno/dev/IHP/sg13/SG13G2_618_rev1.3.3/tech/SG13G2_PASSIVES/spectre/sg13g2_dschottky_nbl1_mod.lib
Reading file:  /users/soft/techno/dev/IHP/sg13/SG13G2_618_rev1.3.3/tech/SG13G2_PASSIVES/spectre/SG13_diodes.lib
Reading file:  /users/soft/techno/dev/IHP/sg13/SG13G2_618_rev1.3.3/tech/SG13_ESD/spectre/SG13_esd.lib
Reading file:  /users/soft/techno/dev/IHP/sg13/SG13G2_618_rev1.3.3/tech/SG13_PASSIVES/spectre/SG13_cornerTSV.scs
Reading file:  /users/soft/techno/dev/IHP/sg13/SG13G2_618_rev1.3.3/tech/SG13_PASSIVES/spectre/SG13_paramsTSV.scs
Reading file:  /users/soft/techno/dev/IHP/sg13/SG13G2_618_rev1.3.3/tech/SG13_PASSIVES/spectre/SG13_tsv.lib
Reading file:  /users/soft/techno/dev/IHP/sg13/SG13G2_618_rev1.3.3/tech/SG13_PASSIVES/spectre/SG13_bondpad.lib

Notice from spectre in `bondpad_model', during circuit read-in.
    "/users/soft/techno/dev/IHP/sg13/SG13G2_618_rev1.3.3/tech/SG13_PASSIVES/spectre/SG13_bondpad.lib" 13: Subcircuit 'bondpad_model' is empty.

Time for NDB Parsing: CPU = 64.318 ms, elapsed = 478.053 ms.
Time accumulated: CPU = 132.28 ms, elapsed = 478.053 ms.
Peak resident memory used = 188 Mbytes.

Time for Elaboration: CPU = 12.788 ms, elapsed = 15.0759 ms.
Time accumulated: CPU = 145.117 ms, elapsed = 493.178 ms.
Peak resident memory used = 197 Mbytes.

 Start ADE Session ID: 3BkepvZj9HDQLMQW

Time for EDB Visiting: CPU = 437 us, elapsed = 437.975 us.
Time accumulated: CPU = 145.598 ms, elapsed = 493.659 ms.
Peak resident memory used = 198 Mbytes.


Notice from spectre during initial setup.
    Multithreading is disabled due to the size of the design being too small.


Netlist title:
        // Point Netlist Generated on: Apr  9 17:28:21 2026


Global user options:
         psfversion = 1.4.0
            vabstol = 1e-06
            iabstol = 1e-12
               temp = 27
               gmin = 1e-12
             rforce = 1
           maxnotes = 5
           maxwarns = 5
             digits = 5
               cols = 80
             pivrel = 0.001
           sensfile = ../psf/sens.output
     checklimitdest = sqldb
      ignorezerovar = yes
               save = allpub
           currents = all
     subcktprobelvl = 5
       saveahdlvars = all
             reltol = 0.001
               tnom = 27
             scalem = 1
              scale = 1

Scoped user options:

Circuit inventory:
              nodes 7
          pspnqs103 6     
           resistor 2     
            vsource 3     

Analysis and control statement inventory:
                 dc 2     
               info 7     

Output statements:
             .probe 0     
           .measure 0     
               save 0     

Design checks inventory:
          paramtest 25    


Notice from spectre during initial setup.
    Protected devices exist and are not included in the circuit inventory.
    APS enabled.

Time for parsing: CPU = 1.289 ms, elapsed = 4.87185 ms.
Time accumulated: CPU = 146.913 ms, elapsed = 498.556 ms.
Peak resident memory used = 202 Mbytes.

~~~~~~~~~~~~~~~~~~~~~~
Pre-Simulation Summary
~~~~~~~~~~~~~~~~~~~~~~
   -   (APS) Multi-threading. The recommended number of threads is 1, consider adding +mt=1 on command line.
~~~~~~~~~~~~~~~~~~~~~~

******************
DC Analysis `dcOp'
******************

Opening the PSF file ../psf/dcOp.dc ...
Important parameter values:
    reltol = 1e-03
    abstol(V) = 1 uV
    abstol(I) = 1 pA
    temp = 27 C
    tnom = 27 C
    tempeffects = all
    gmindc = 1 pS
    rabsshort = 1 mOhm

Maximum value achieved for any signal of each quantity: 
V: V(vdd!) = 1.2 V
I: I(V0:p) = 22.8 uA
Convergence achieved in 7 iterations.
DC simulation time: CPU = 1.603 ms, elapsed = 6.042 ms.
Total time required for dc analysis `dcOp': CPU = 1.626 ms, elapsed = 6.06418 ms, util. = 26.8%.
Time accumulated: CPU = 153.23 ms, elapsed = 510.342 ms.
Peak resident memory used = 206 Mbytes.

dcOpInfo: writing operating point information to rawfile.

Opening the PSF file ../psf/dcOpInfo.info ...

*********************************
DC Analysis `dc': Vg = (0 -> 1.2)
*********************************

Opening the PSF file ../psf/dc.dc ...
Important parameter values:
    reltol = 1e-03
    abstol(V) = 1 uV
    abstol(I) = 1 pA
    temp = 27 C
    tnom = 27 C
    tempeffects = all
    gmindc = 1 pS
    rabsshort = 1 mOhm
    dc: Vg = 30e-03       (2.5 %), step = 1e-03       (83.3 m%)
    dc: Vg = 31e-03      (2.58 %), step = 1e-03       (83.3 m%)
    dc: Vg = 32e-03      (2.67 %), step = 1e-03       (83.3 m%)
    dc: Vg = 33e-03      (2.75 %), step = 1e-03       (83.3 m%)
    dc: Vg = 34e-03      (2.83 %), step = 1e-03       (83.3 m%)
    dc: Vg = 35e-03      (2.92 %), step = 1e-03       (83.3 m%)
    dc: Vg = 36e-03         (3 %), step = 1e-03       (83.3 m%)
    dc: Vg = 37e-03      (3.08 %), step = 1e-03       (83.3 m%)
    dc: Vg = 38e-03      (3.17 %), step = 1e-03       (83.3 m%)
    dc: Vg = 39e-03      (3.25 %), step = 1e-03       (83.3 m%)
    dc: Vg = 40e-03      (3.33 %), step = 1e-03       (83.3 m%)
    dc: Vg = 41e-03      (3.42 %), step = 1e-03       (83.3 m%)
    dc: Vg = 42e-03       (3.5 %), step = 1e-03       (83.3 m%)
    dc: Vg = 43e-03      (3.58 %), step = 1e-03       (83.3 m%)
    dc: Vg = 44e-03      (3.67 %), step = 1e-03       (83.3 m%)
    dc: Vg = 45e-03      (3.75 %), step = 1e-03       (83.3 m%)
    dc: Vg = 46e-03      (3.83 %), step = 1e-03       (83.3 m%)
    dc: Vg = 47e-03      (3.92 %), step = 1e-03       (83.3 m%)
    dc: Vg = 48e-03         (4 %), step = 1e-03       (83.3 m%)
    dc: Vg = 49e-03      (4.08 %), step = 1e-03       (83.3 m%)
    dc: Vg = 50e-03      (4.17 %), step = 1e-03       (83.3 m%)
    dc: Vg = 51e-03      (4.25 %), step = 1e-03       (83.3 m%)
    dc: Vg = 52e-03      (4.33 %), step = 1e-03       (83.3 m%)
    dc: Vg = 53e-03      (4.42 %), step = 1e-03       (83.3 m%)
    dc: Vg = 54e-03       (4.5 %), step = 1e-03       (83.3 m%)
    dc: Vg = 55e-03      (4.58 %), step = 1e-03       (83.3 m%)
    dc: Vg = 56e-03      (4.67 %), step = 1e-03       (83.3 m%)
    dc: Vg = 57e-03      (4.75 %), step = 1e-03       (83.3 m%)
    dc: Vg = 58e-03      (4.83 %), step = 1e-03       (83.3 m%)
    dc: Vg = 59e-03      (4.92 %), step = 1e-03       (83.3 m%)
    dc: Vg = 60e-03         (5 %), step = 1e-03       (83.3 m%)
    dc: Vg = 61e-03      (5.08 %), step = 1e-03       (83.3 m%)
    dc: Vg = 62e-03      (5.17 %), step = 1e-03       (83.3 m%)
    dc: Vg = 63e-03      (5.25 %), step = 1e-03       (83.3 m%)
    dc: Vg = 64e-03      (5.33 %), step = 1e-03       (83.3 m%)
    dc: Vg = 65e-03      (5.42 %), step = 1e-03       (83.3 m%)
    dc: Vg = 66e-03       (5.5 %), step = 1e-03       (83.3 m%)
    dc: Vg = 67e-03      (5.58 %), step = 1e-03       (83.3 m%)
    dc: Vg = 68e-03      (5.67 %), step = 1e-03       (83.3 m%)
    dc: Vg = 69e-03      (5.75 %), step = 1e-03       (83.3 m%)
    dc: Vg = 70e-03      (5.83 %), step = 1e-03       (83.3 m%)
    dc: Vg = 71e-03      (5.92 %), step = 1e-03       (83.3 m%)
    dc: Vg = 72e-03         (6 %), step = 1e-03       (83.3 m%)
    dc: Vg = 73e-03      (6.08 %), step = 1e-03       (83.3 m%)
    dc: Vg = 74e-03      (6.17 %), step = 1e-03       (83.3 m%)
    dc: Vg = 75e-03      (6.25 %), step = 1e-03       (83.3 m%)
    dc: Vg = 76e-03      (6.33 %), step = 1e-03       (83.3 m%)
    dc: Vg = 77e-03      (6.42 %), step = 1e-03       (83.3 m%)
    dc: Vg = 78e-03       (6.5 %), step = 1e-03       (83.3 m%)
    dc: Vg = 79e-03      (6.58 %), step = 1e-03       (83.3 m%)
    dc: Vg = 80e-03      (6.67 %), step = 1e-03       (83.3 m%)
    dc: Vg = 81e-03      (6.75 %), step = 1e-03       (83.3 m%)
    dc: Vg = 82e-03      (6.83 %), step = 1e-03       (83.3 m%)
    dc: Vg = 83e-03      (6.92 %), step = 1e-03       (83.3 m%)
    dc: Vg = 84e-03         (7 %), step = 1e-03       (83.3 m%)
    dc: Vg = 85e-03      (7.08 %), step = 1e-03       (83.3 m%)
    dc: Vg = 86e-03      (7.17 %), step = 1e-03       (83.3 m%)
    dc: Vg = 87e-03      (7.25 %), step = 1e-03       (83.3 m%)
    dc: Vg = 88e-03      (7.33 %), step = 1e-03       (83.3 m%)
    dc: Vg = 89e-03      (7.42 %), step = 1e-03       (83.3 m%)
    dc: Vg = 90e-03       (7.5 %), step = 1e-03       (83.3 m%)
    dc: Vg = 91e-03      (7.58 %), step = 1e-03       (83.3 m%)
    dc: Vg = 92e-03      (7.67 %), step = 1e-03       (83.3 m%)
    dc: Vg = 93e-03      (7.75 %), step = 1e-03       (83.3 m%)
    dc: Vg = 94e-03      (7.83 %), step = 1e-03       (83.3 m%)
    dc: Vg = 95e-03      (7.92 %), step = 1e-03       (83.3 m%)
    dc: Vg = 96e-03         (8 %), step = 1e-03       (83.3 m%)
    dc: Vg = 97e-03      (8.08 %), step = 1e-03       (83.3 m%)
    dc: Vg = 98e-03      (8.17 %), step = 1e-03       (83.3 m%)
    dc: Vg = 99e-03      (8.25 %), step = 1e-03       (83.3 m%)
    dc: Vg = 100e-03     (8.33 %), step = 1e-03       (83.3 m%)
    dc: Vg = 101e-03     (8.42 %), step = 1e-03       (83.3 m%)
    dc: Vg = 102e-03      (8.5 %), step = 1e-03       (83.3 m%)
    dc: Vg = 103e-03     (8.58 %), step = 1e-03       (83.3 m%)
    dc: Vg = 104e-03     (8.67 %), step = 1e-03       (83.3 m%)
    dc: Vg = 105e-03     (8.75 %), step = 1e-03       (83.3 m%)
    dc: Vg = 106e-03     (8.83 %), step = 1e-03       (83.3 m%)
    dc: Vg = 107e-03     (8.92 %), step = 1e-03       (83.3 m%)
    dc: Vg = 108e-03        (9 %), step = 1e-03       (83.3 m%)
    dc: Vg = 109e-03     (9.08 %), step = 1e-03       (83.3 m%)
    dc: Vg = 110e-03     (9.17 %), step = 1e-03       (83.3 m%)
    dc: Vg = 111e-03     (9.25 %), step = 1e-03       (83.3 m%)
    dc: Vg = 112e-03     (9.33 %), step = 1e-03       (83.3 m%)
    dc: Vg = 113e-03     (9.42 %), step = 1e-03       (83.3 m%)
    dc: Vg = 114e-03      (9.5 %), step = 1e-03       (83.3 m%)
    dc: Vg = 115e-03     (9.58 %), step = 1e-03       (83.3 m%)
    dc: Vg = 116e-03     (9.67 %), step = 1e-03       (83.3 m%)
    dc: Vg = 117e-03     (9.75 %), step = 1e-03       (83.3 m%)
    dc: Vg = 118e-03     (9.83 %), step = 1e-03       (83.3 m%)
    dc: Vg = 119e-03     (9.92 %), step = 1e-03       (83.3 m%)
    dc: Vg = 120e-03       (10 %), step = 1e-03       (83.3 m%)
    dc: Vg = 121e-03     (10.1 %), step = 1e-03       (83.3 m%)
    dc: Vg = 122e-03     (10.2 %), step = 1e-03       (83.3 m%)
    dc: Vg = 123e-03     (10.2 %), step = 1e-03       (83.3 m%)
    dc: Vg = 124e-03     (10.3 %), step = 1e-03       (83.3 m%)
    dc: Vg = 125e-03     (10.4 %), step = 1e-03       (83.3 m%)
    dc: Vg = 126e-03     (10.5 %), step = 1e-03       (83.3 m%)
    dc: Vg = 127e-03     (10.6 %), step = 1e-03       (83.3 m%)
    dc: Vg = 128e-03     (10.7 %), step = 1e-03       (83.3 m%)
    dc: Vg = 129e-03     (10.8 %), step = 1e-03       (83.3 m%)
    dc: Vg = 130e-03     (10.8 %), step = 1e-03       (83.3 m%)
    dc: Vg = 131e-03     (10.9 %), step = 1e-03       (83.3 m%)
    dc: Vg = 132e-03       (11 %), step = 1e-03       (83.3 m%)
    dc: Vg = 133e-03     (11.1 %), step = 1e-03       (83.3 m%)
    dc: Vg = 134e-03     (11.2 %), step = 1e-03       (83.3 m%)
    dc: Vg = 135e-03     (11.2 %), step = 1e-03       (83.3 m%)
    dc: Vg = 136e-03     (11.3 %), step = 1e-03       (83.3 m%)
    dc: Vg = 137e-03     (11.4 %), step = 1e-03       (83.3 m%)
    dc: Vg = 138e-03     (11.5 %), step = 1e-03       (83.3 m%)
    dc: Vg = 139e-03     (11.6 %), step = 1e-03       (83.3 m%)
    dc: Vg = 140e-03     (11.7 %), step = 1e-03       (83.3 m%)
    dc: Vg = 141e-03     (11.8 %), step = 1e-03       (83.3 m%)
    dc: Vg = 142e-03     (11.8 %), step = 1e-03       (83.3 m%)
    dc: Vg = 143e-03     (11.9 %), step = 1e-03       (83.3 m%)
    dc: Vg = 144e-03       (12 %), step = 1e-03       (83.3 m%)
    dc: Vg = 145e-03     (12.1 %), step = 1e-03       (83.3 m%)
    dc: Vg = 146e-03     (12.2 %), step = 1e-03       (83.3 m%)
    dc: Vg = 147e-03     (12.2 %), step = 1e-03       (83.3 m%)
    dc: Vg = 148e-03     (12.3 %), step = 1e-03       (83.3 m%)
    dc: Vg = 149e-03     (12.4 %), step = 1e-03       (83.3 m%)
    dc: Vg = 150e-03     (12.5 %), step = 1e-03       (83.3 m%)
    dc: Vg = 151e-03     (12.6 %), step = 1e-03       (83.3 m%)
    dc: Vg = 152e-03     (12.7 %), step = 1e-03       (83.3 m%)
    dc: Vg = 153e-03     (12.8 %), step = 1e-03       (83.3 m%)
    dc: Vg = 154e-03     (12.8 %), step = 1e-03       (83.3 m%)
    dc: Vg = 155e-03     (12.9 %), step = 1e-03       (83.3 m%)
    dc: Vg = 156e-03       (13 %), step = 1e-03       (83.3 m%)
    dc: Vg = 157e-03     (13.1 %), step = 1e-03       (83.3 m%)
    dc: Vg = 158e-03     (13.2 %), step = 1e-03       (83.3 m%)
    dc: Vg = 159e-03     (13.2 %), step = 1e-03       (83.3 m%)
    dc: Vg = 160e-03     (13.3 %), step = 1e-03       (83.3 m%)
    dc: Vg = 161e-03     (13.4 %), step = 1e-03       (83.3 m%)
    dc: Vg = 162e-03     (13.5 %), step = 1e-03       (83.3 m%)
    dc: Vg = 163e-03     (13.6 %), step = 1e-03       (83.3 m%)
    dc: Vg = 164e-03     (13.7 %), step = 1e-03       (83.3 m%)
    dc: Vg = 165e-03     (13.8 %), step = 1e-03       (83.3 m%)
    dc: Vg = 166e-03     (13.8 %), step = 1e-03       (83.3 m%)
    dc: Vg = 167e-03     (13.9 %), step = 1e-03       (83.3 m%)
    dc: Vg = 168e-03       (14 %), step = 1e-03       (83.3 m%)
    dc: Vg = 169e-03     (14.1 %), step = 1e-03       (83.3 m%)
    dc: Vg = 170e-03     (14.2 %), step = 1e-03       (83.3 m%)
    dc: Vg = 171e-03     (14.2 %), step = 1e-03       (83.3 m%)
    dc: Vg = 172e-03     (14.3 %), step = 1e-03       (83.3 m%)
    dc: Vg = 173e-03     (14.4 %), step = 1e-03       (83.3 m%)
    dc: Vg = 174e-03     (14.5 %), step = 1e-03       (83.3 m%)
    dc: Vg = 175e-03     (14.6 %), step = 1e-03       (83.3 m%)
    dc: Vg = 176e-03     (14.7 %), step = 1e-03       (83.3 m%)
    dc: Vg = 177e-03     (14.8 %), step = 1e-03       (83.3 m%)
    dc: Vg = 178e-03     (14.8 %), step = 1e-03       (83.3 m%)
    dc: Vg = 179e-03     (14.9 %), step = 1e-03       (83.3 m%)
    dc: Vg = 180e-03       (15 %), step = 1e-03       (83.3 m%)
    dc: Vg = 181e-03     (15.1 %), step = 1e-03       (83.3 m%)
    dc: Vg = 182e-03     (15.2 %), step = 1e-03       (83.3 m%)
    dc: Vg = 183e-03     (15.2 %), step = 1e-03       (83.3 m%)
    dc: Vg = 184e-03     (15.3 %), step = 1e-03       (83.3 m%)
    dc: Vg = 185e-03     (15.4 %), step = 1e-03       (83.3 m%)
    dc: Vg = 186e-03     (15.5 %), step = 1e-03       (83.3 m%)
    dc: Vg = 187e-03     (15.6 %), step = 1e-03       (83.3 m%)
    dc: Vg = 188e-03     (15.7 %), step = 1e-03       (83.3 m%)
    dc: Vg = 189e-03     (15.8 %), step = 1e-03       (83.3 m%)
    dc: Vg = 190e-03     (15.8 %), step = 1e-03       (83.3 m%)
    dc: Vg = 191e-03     (15.9 %), step = 1e-03       (83.3 m%)
    dc: Vg = 192e-03       (16 %), step = 1e-03       (83.3 m%)
    dc: Vg = 193e-03     (16.1 %), step = 1e-03       (83.3 m%)
    dc: Vg = 194e-03     (16.2 %), step = 1e-03       (83.3 m%)
    dc: Vg = 195e-03     (16.2 %), step = 1e-03       (83.3 m%)
    dc: Vg = 196e-03     (16.3 %), step = 1e-03       (83.3 m%)
    dc: Vg = 197e-03     (16.4 %), step = 1e-03       (83.3 m%)
    dc: Vg = 198e-03     (16.5 %), step = 1e-03       (83.3 m%)
    dc: Vg = 199e-03     (16.6 %), step = 1e-03       (83.3 m%)
    dc: Vg = 200e-03     (16.7 %), step = 1e-03       (83.3 m%)
    dc: Vg = 201e-03     (16.8 %), step = 1e-03       (83.3 m%)
    dc: Vg = 202e-03     (16.8 %), step = 1e-03       (83.3 m%)
    dc: Vg = 203e-03     (16.9 %), step = 1e-03       (83.3 m%)
    dc: Vg = 204e-03       (17 %), step = 1e-03       (83.3 m%)
    dc: Vg = 205e-03     (17.1 %), step = 1e-03       (83.3 m%)
    dc: Vg = 206e-03     (17.2 %), step = 1e-03       (83.3 m%)
    dc: Vg = 207e-03     (17.2 %), step = 1e-03       (83.3 m%)
    dc: Vg = 208e-03     (17.3 %), step = 1e-03       (83.3 m%)
    dc: Vg = 209e-03     (17.4 %), step = 1e-03       (83.3 m%)
    dc: Vg = 210e-03     (17.5 %), step = 1e-03       (83.3 m%)
    dc: Vg = 211e-03     (17.6 %), step = 1e-03       (83.3 m%)
    dc: Vg = 212e-03     (17.7 %), step = 1e-03       (83.3 m%)
    dc: Vg = 213e-03     (17.8 %), step = 1e-03       (83.3 m%)
    dc: Vg = 214e-03     (17.8 %), step = 1e-03       (83.3 m%)
    dc: Vg = 215e-03     (17.9 %), step = 1e-03       (83.3 m%)
    dc: Vg = 216e-03       (18 %), step = 1e-03       (83.3 m%)
    dc: Vg = 217e-03     (18.1 %), step = 1e-03       (83.3 m%)
    dc: Vg = 218e-03     (18.2 %), step = 1e-03       (83.3 m%)
    dc: Vg = 219e-03     (18.2 %), step = 1e-03       (83.3 m%)
    dc: Vg = 220e-03     (18.3 %), step = 1e-03       (83.3 m%)
    dc: Vg = 221e-03     (18.4 %), step = 1e-03       (83.3 m%)
    dc: Vg = 222e-03     (18.5 %), step = 1e-03       (83.3 m%)
    dc: Vg = 223e-03     (18.6 %), step = 1e-03       (83.3 m%)
    dc: Vg = 224e-03     (18.7 %), step = 1e-03       (83.3 m%)
    dc: Vg = 225e-03     (18.8 %), step = 1e-03       (83.3 m%)
    dc: Vg = 226e-03     (18.8 %), step = 1e-03       (83.3 m%)
    dc: Vg = 227e-03     (18.9 %), step = 1e-03       (83.3 m%)
    dc: Vg = 228e-03       (19 %), step = 1e-03       (83.3 m%)
    dc: Vg = 229e-03     (19.1 %), step = 1e-03       (83.3 m%)
    dc: Vg = 230e-03     (19.2 %), step = 1e-03       (83.3 m%)
    dc: Vg = 231e-03     (19.2 %), step = 1e-03       (83.3 m%)
    dc: Vg = 232e-03     (19.3 %), step = 1e-03       (83.3 m%)
    dc: Vg = 233e-03     (19.4 %), step = 1e-03       (83.3 m%)
    dc: Vg = 234e-03     (19.5 %), step = 1e-03       (83.3 m%)
    dc: Vg = 235e-03     (19.6 %), step = 1e-03       (83.3 m%)
    dc: Vg = 236e-03     (19.7 %), step = 1e-03       (83.3 m%)
    dc: Vg = 237e-03     (19.8 %), step = 1e-03       (83.3 m%)
    dc: Vg = 238e-03     (19.8 %), step = 1e-03       (83.3 m%)
    dc: Vg = 239e-03     (19.9 %), step = 1e-03       (83.3 m%)
    dc: Vg = 240e-03       (20 %), step = 1e-03       (83.3 m%)
    dc: Vg = 241e-03     (20.1 %), step = 1e-03       (83.3 m%)
    dc: Vg = 242e-03     (20.2 %), step = 1e-03       (83.3 m%)
    dc: Vg = 243e-03     (20.2 %), step = 1e-03       (83.3 m%)
    dc: Vg = 244e-03     (20.3 %), step = 1e-03       (83.3 m%)
    dc: Vg = 245e-03     (20.4 %), step = 1e-03       (83.3 m%)
    dc: Vg = 246e-03     (20.5 %), step = 1e-03       (83.3 m%)
    dc: Vg = 247e-03     (20.6 %), step = 1e-03       (83.3 m%)
    dc: Vg = 248e-03     (20.7 %), step = 1e-03       (83.3 m%)
    dc: Vg = 249e-03     (20.8 %), step = 1e-03       (83.3 m%)
    dc: Vg = 250e-03     (20.8 %), step = 1e-03       (83.3 m%)
    dc: Vg = 251e-03     (20.9 %), step = 1e-03       (83.3 m%)
    dc: Vg = 252e-03       (21 %), step = 1e-03       (83.3 m%)
    dc: Vg = 253e-03     (21.1 %), step = 1e-03       (83.3 m%)
    dc: Vg = 254e-03     (21.2 %), step = 1e-03       (83.3 m%)
    dc: Vg = 255e-03     (21.2 %), step = 1e-03       (83.3 m%)
    dc: Vg = 256e-03     (21.3 %), step = 1e-03       (83.3 m%)
    dc: Vg = 257e-03     (21.4 %), step = 1e-03       (83.3 m%)
    dc: Vg = 258e-03     (21.5 %), step = 1e-03       (83.3 m%)
    dc: Vg = 259e-03     (21.6 %), step = 1e-03       (83.3 m%)
    dc: Vg = 260e-03     (21.7 %), step = 1e-03       (83.3 m%)
    dc: Vg = 261e-03     (21.8 %), step = 1e-03       (83.3 m%)
    dc: Vg = 262e-03     (21.8 %), step = 1e-03       (83.3 m%)
    dc: Vg = 263e-03     (21.9 %), step = 1e-03       (83.3 m%)
    dc: Vg = 264e-03       (22 %), step = 1e-03       (83.3 m%)
    dc: Vg = 265e-03     (22.1 %), step = 1e-03       (83.3 m%)
    dc: Vg = 266e-03     (22.2 %), step = 1e-03       (83.3 m%)
    dc: Vg = 267e-03     (22.2 %), step = 1e-03       (83.3 m%)
    dc: Vg = 268e-03     (22.3 %), step = 1e-03       (83.3 m%)
    dc: Vg = 269e-03     (22.4 %), step = 1e-03       (83.3 m%)
    dc: Vg = 270e-03     (22.5 %), step = 1e-03       (83.3 m%)
    dc: Vg = 271e-03     (22.6 %), step = 1e-03       (83.3 m%)
    dc: Vg = 272e-03     (22.7 %), step = 1e-03       (83.3 m%)
    dc: Vg = 273e-03     (22.8 %), step = 1e-03       (83.3 m%)
    dc: Vg = 274e-03     (22.8 %), step = 1e-03       (83.3 m%)
    dc: Vg = 275e-03     (22.9 %), step = 1e-03       (83.3 m%)
    dc: Vg = 276e-03       (23 %), step = 1e-03       (83.3 m%)
    dc: Vg = 277e-03     (23.1 %), step = 1e-03       (83.3 m%)
    dc: Vg = 278e-03     (23.2 %), step = 1e-03       (83.3 m%)
    dc: Vg = 279e-03     (23.2 %), step = 1e-03       (83.3 m%)
    dc: Vg = 280e-03     (23.3 %), step = 1e-03       (83.3 m%)
    dc: Vg = 281e-03     (23.4 %), step = 1e-03       (83.3 m%)
    dc: Vg = 282e-03     (23.5 %), step = 1e-03       (83.3 m%)
    dc: Vg = 283e-03     (23.6 %), step = 1e-03       (83.3 m%)
    dc: Vg = 284e-03     (23.7 %), step = 1e-03       (83.3 m%)
    dc: Vg = 285e-03     (23.8 %), step = 1e-03       (83.3 m%)
    dc: Vg = 286e-03     (23.8 %), step = 1e-03       (83.3 m%)
    dc: Vg = 287e-03     (23.9 %), step = 1e-03       (83.3 m%)
    dc: Vg = 288e-03       (24 %), step = 1e-03       (83.3 m%)
    dc: Vg = 289e-03     (24.1 %), step = 1e-03       (83.3 m%)
    dc: Vg = 290e-03     (24.2 %), step = 1e-03       (83.3 m%)
    dc: Vg = 291e-03     (24.2 %), step = 1e-03       (83.3 m%)
    dc: Vg = 292e-03     (24.3 %), step = 1e-03       (83.3 m%)
    dc: Vg = 293e-03     (24.4 %), step = 1e-03       (83.3 m%)
    dc: Vg = 294e-03     (24.5 %), step = 1e-03       (83.3 m%)
    dc: Vg = 295e-03     (24.6 %), step = 1e-03       (83.3 m%)
    dc: Vg = 296e-03     (24.7 %), step = 1e-03       (83.3 m%)
    dc: Vg = 297e-03     (24.8 %), step = 1e-03       (83.3 m%)
    dc: Vg = 298e-03     (24.8 %), step = 1e-03       (83.3 m%)
    dc: Vg = 299e-03     (24.9 %), step = 1e-03       (83.3 m%)
    dc: Vg = 300e-03       (25 %), step = 1e-03       (83.3 m%)
    dc: Vg = 301e-03     (25.1 %), step = 1e-03       (83.3 m%)
    dc: Vg = 302e-03     (25.2 %), step = 1e-03       (83.3 m%)
    dc: Vg = 303e-03     (25.2 %), step = 1e-03       (83.3 m%)
    dc: Vg = 304e-03     (25.3 %), step = 1e-03       (83.3 m%)
    dc: Vg = 305e-03     (25.4 %), step = 1e-03       (83.3 m%)
    dc: Vg = 306e-03     (25.5 %), step = 1e-03       (83.3 m%)
    dc: Vg = 307e-03     (25.6 %), step = 1e-03       (83.3 m%)
    dc: Vg = 308e-03     (25.7 %), step = 1e-03       (83.3 m%)
    dc: Vg = 309e-03     (25.8 %), step = 1e-03       (83.3 m%)
    dc: Vg = 310e-03     (25.8 %), step = 1e-03       (83.3 m%)
    dc: Vg = 311e-03     (25.9 %), step = 1e-03       (83.3 m%)
    dc: Vg = 312e-03       (26 %), step = 1e-03       (83.3 m%)
    dc: Vg = 313e-03     (26.1 %), step = 1e-03       (83.3 m%)
    dc: Vg = 314e-03     (26.2 %), step = 1e-03       (83.3 m%)
    dc: Vg = 315e-03     (26.2 %), step = 1e-03       (83.3 m%)
    dc: Vg = 316e-03     (26.3 %), step = 1e-03       (83.3 m%)
    dc: Vg = 317e-03     (26.4 %), step = 1e-03       (83.3 m%)
    dc: Vg = 318e-03     (26.5 %), step = 1e-03       (83.3 m%)
    dc: Vg = 319e-03     (26.6 %), step = 1e-03       (83.3 m%)
    dc: Vg = 320e-03     (26.7 %), step = 1e-03       (83.3 m%)
    dc: Vg = 321e-03     (26.8 %), step = 1e-03       (83.3 m%)
    dc: Vg = 322e-03     (26.8 %), step = 1e-03       (83.3 m%)
    dc: Vg = 323e-03     (26.9 %), step = 1e-03       (83.3 m%)
    dc: Vg = 324e-03       (27 %), step = 1e-03       (83.3 m%)
    dc: Vg = 325e-03     (27.1 %), step = 1e-03       (83.3 m%)
    dc: Vg = 326e-03     (27.2 %), step = 1e-03       (83.3 m%)
    dc: Vg = 327e-03     (27.3 %), step = 1e-03       (83.3 m%)
    dc: Vg = 328e-03     (27.3 %), step = 1e-03       (83.3 m%)
    dc: Vg = 329e-03     (27.4 %), step = 1e-03       (83.3 m%)
    dc: Vg = 330e-03     (27.5 %), step = 1e-03       (83.3 m%)
    dc: Vg = 331e-03     (27.6 %), step = 1e-03       (83.3 m%)
    dc: Vg = 332e-03     (27.7 %), step = 1e-03       (83.3 m%)
    dc: Vg = 333e-03     (27.8 %), step = 1e-03       (83.3 m%)
    dc: Vg = 334e-03     (27.8 %), step = 1e-03       (83.3 m%)
    dc: Vg = 335e-03     (27.9 %), step = 1e-03       (83.3 m%)
    dc: Vg = 336e-03       (28 %), step = 1e-03       (83.3 m%)
    dc: Vg = 337e-03     (28.1 %), step = 1e-03       (83.3 m%)
    dc: Vg = 338e-03     (28.2 %), step = 1e-03       (83.3 m%)
    dc: Vg = 339e-03     (28.2 %), step = 1e-03       (83.3 m%)
    dc: Vg = 340e-03     (28.3 %), step = 1e-03       (83.3 m%)
    dc: Vg = 341e-03     (28.4 %), step = 1e-03       (83.3 m%)
    dc: Vg = 342e-03     (28.5 %), step = 1e-03       (83.3 m%)
    dc: Vg = 343e-03     (28.6 %), step = 1e-03       (83.3 m%)
    dc: Vg = 344e-03     (28.7 %), step = 1e-03       (83.3 m%)
    dc: Vg = 345e-03     (28.7 %), step = 1e-03       (83.3 m%)
    dc: Vg = 346e-03     (28.8 %), step = 1e-03       (83.3 m%)
    dc: Vg = 347e-03     (28.9 %), step = 1e-03       (83.3 m%)
    dc: Vg = 348e-03       (29 %), step = 1e-03       (83.3 m%)
    dc: Vg = 349e-03     (29.1 %), step = 1e-03       (83.3 m%)
    dc: Vg = 350e-03     (29.2 %), step = 1e-03       (83.3 m%)
    dc: Vg = 351e-03     (29.2 %), step = 1e-03       (83.3 m%)
    dc: Vg = 352e-03     (29.3 %), step = 1e-03       (83.3 m%)
    dc: Vg = 353e-03     (29.4 %), step = 1e-03       (83.3 m%)
    dc: Vg = 354e-03     (29.5 %), step = 1e-03       (83.3 m%)
    dc: Vg = 355e-03     (29.6 %), step = 1e-03       (83.3 m%)
    dc: Vg = 356e-03     (29.7 %), step = 1e-03       (83.3 m%)
    dc: Vg = 357e-03     (29.8 %), step = 1e-03       (83.3 m%)
    dc: Vg = 358e-03     (29.8 %), step = 1e-03       (83.3 m%)
    dc: Vg = 359e-03     (29.9 %), step = 1e-03       (83.3 m%)
    dc: Vg = 360e-03       (30 %), step = 1e-03       (83.3 m%)
    dc: Vg = 361e-03     (30.1 %), step = 1e-03       (83.3 m%)
    dc: Vg = 362e-03     (30.2 %), step = 1e-03       (83.3 m%)
    dc: Vg = 363e-03     (30.2 %), step = 1e-03       (83.3 m%)
    dc: Vg = 364e-03     (30.3 %), step = 1e-03       (83.3 m%)
    dc: Vg = 365e-03     (30.4 %), step = 1e-03       (83.3 m%)
    dc: Vg = 366e-03     (30.5 %), step = 1e-03       (83.3 m%)
    dc: Vg = 367e-03     (30.6 %), step = 1e-03       (83.3 m%)
    dc: Vg = 368e-03     (30.7 %), step = 1e-03       (83.3 m%)
    dc: Vg = 369e-03     (30.8 %), step = 1e-03       (83.3 m%)
    dc: Vg = 370e-03     (30.8 %), step = 1e-03       (83.3 m%)
    dc: Vg = 371e-03     (30.9 %), step = 1e-03       (83.3 m%)
    dc: Vg = 372e-03       (31 %), step = 1e-03       (83.3 m%)
    dc: Vg = 373e-03     (31.1 %), step = 1e-03       (83.3 m%)
    dc: Vg = 374e-03     (31.2 %), step = 1e-03       (83.3 m%)
    dc: Vg = 375e-03     (31.2 %), step = 1e-03       (83.3 m%)
    dc: Vg = 376e-03     (31.3 %), step = 1e-03       (83.3 m%)
    dc: Vg = 377e-03     (31.4 %), step = 1e-03       (83.3 m%)
    dc: Vg = 378e-03     (31.5 %), step = 1e-03       (83.3 m%)
    dc: Vg = 379e-03     (31.6 %), step = 1e-03       (83.3 m%)
    dc: Vg = 380e-03     (31.7 %), step = 1e-03       (83.3 m%)
    dc: Vg = 381e-03     (31.8 %), step = 1e-03       (83.3 m%)
    dc: Vg = 382e-03     (31.8 %), step = 1e-03       (83.3 m%)
    dc: Vg = 383e-03     (31.9 %), step = 1e-03       (83.3 m%)
    dc: Vg = 384e-03       (32 %), step = 1e-03       (83.3 m%)
    dc: Vg = 385e-03     (32.1 %), step = 1e-03       (83.3 m%)
    dc: Vg = 386e-03     (32.2 %), step = 1e-03       (83.3 m%)
    dc: Vg = 387e-03     (32.2 %), step = 1e-03       (83.3 m%)
    dc: Vg = 388e-03     (32.3 %), step = 1e-03       (83.3 m%)
    dc: Vg = 389e-03     (32.4 %), step = 1e-03       (83.3 m%)
    dc: Vg = 390e-03     (32.5 %), step = 1e-03       (83.3 m%)
    dc: Vg = 391e-03     (32.6 %), step = 1e-03       (83.3 m%)
    dc: Vg = 392e-03     (32.7 %), step = 1e-03       (83.3 m%)
    dc: Vg = 393e-03     (32.8 %), step = 1e-03       (83.3 m%)
    dc: Vg = 394e-03     (32.8 %), step = 1e-03       (83.3 m%)
    dc: Vg = 395e-03     (32.9 %), step = 1e-03       (83.3 m%)
    dc: Vg = 396e-03       (33 %), step = 1e-03       (83.3 m%)
    dc: Vg = 397e-03     (33.1 %), step = 1e-03       (83.3 m%)
    dc: Vg = 398e-03     (33.2 %), step = 1e-03       (83.3 m%)
    dc: Vg = 399e-03     (33.2 %), step = 1e-03       (83.3 m%)
    dc: Vg = 400e-03     (33.3 %), step = 1e-03       (83.3 m%)
    dc: Vg = 401e-03     (33.4 %), step = 1e-03       (83.3 m%)
    dc: Vg = 402e-03     (33.5 %), step = 1e-03       (83.3 m%)
    dc: Vg = 403e-03     (33.6 %), step = 1e-03       (83.3 m%)
    dc: Vg = 404e-03     (33.7 %), step = 1e-03       (83.3 m%)
    dc: Vg = 405e-03     (33.8 %), step = 1e-03       (83.3 m%)
    dc: Vg = 406e-03     (33.8 %), step = 1e-03       (83.3 m%)
    dc: Vg = 407e-03     (33.9 %), step = 1e-03       (83.3 m%)
    dc: Vg = 408e-03       (34 %), step = 1e-03       (83.3 m%)
    dc: Vg = 409e-03     (34.1 %), step = 1e-03       (83.3 m%)
    dc: Vg = 410e-03     (34.2 %), step = 1e-03       (83.3 m%)
    dc: Vg = 411e-03     (34.2 %), step = 1e-03       (83.3 m%)
    dc: Vg = 412e-03     (34.3 %), step = 1e-03       (83.3 m%)
    dc: Vg = 413e-03     (34.4 %), step = 1e-03       (83.3 m%)
    dc: Vg = 414e-03     (34.5 %), step = 1e-03       (83.3 m%)
    dc: Vg = 415e-03     (34.6 %), step = 1e-03       (83.3 m%)
    dc: Vg = 416e-03     (34.7 %), step = 1e-03       (83.3 m%)
    dc: Vg = 417e-03     (34.8 %), step = 1e-03       (83.3 m%)
    dc: Vg = 418e-03     (34.8 %), step = 1e-03       (83.3 m%)
    dc: Vg = 419e-03     (34.9 %), step = 1e-03       (83.3 m%)
    dc: Vg = 420e-03       (35 %), step = 1e-03       (83.3 m%)
    dc: Vg = 421e-03     (35.1 %), step = 1e-03       (83.3 m%)
    dc: Vg = 422e-03     (35.2 %), step = 1e-03       (83.3 m%)
    dc: Vg = 423e-03     (35.2 %), step = 1e-03       (83.3 m%)
    dc: Vg = 424e-03     (35.3 %), step = 1e-03       (83.3 m%)
    dc: Vg = 425e-03     (35.4 %), step = 1e-03       (83.3 m%)
    dc: Vg = 426e-03     (35.5 %), step = 1e-03       (83.3 m%)
    dc: Vg = 427e-03     (35.6 %), step = 1e-03       (83.3 m%)
    dc: Vg = 428e-03     (35.7 %), step = 1e-03       (83.3 m%)
    dc: Vg = 429e-03     (35.8 %), step = 1e-03       (83.3 m%)
    dc: Vg = 430e-03     (35.8 %), step = 1e-03       (83.3 m%)
    dc: Vg = 431e-03     (35.9 %), step = 1e-03       (83.3 m%)
    dc: Vg = 432e-03       (36 %), step = 1e-03       (83.3 m%)
    dc: Vg = 433e-03     (36.1 %), step = 1e-03       (83.3 m%)
    dc: Vg = 434e-03     (36.2 %), step = 1e-03       (83.3 m%)
    dc: Vg = 435e-03     (36.2 %), step = 1e-03       (83.3 m%)
    dc: Vg = 436e-03     (36.3 %), step = 1e-03       (83.3 m%)
    dc: Vg = 437e-03     (36.4 %), step = 1e-03       (83.3 m%)
    dc: Vg = 438e-03     (36.5 %), step = 1e-03       (83.3 m%)
    dc: Vg = 439e-03     (36.6 %), step = 1e-03       (83.3 m%)
    dc: Vg = 440e-03     (36.7 %), step = 1e-03       (83.3 m%)
    dc: Vg = 441e-03     (36.8 %), step = 1e-03       (83.3 m%)
    dc: Vg = 442e-03     (36.8 %), step = 1e-03       (83.3 m%)
    dc: Vg = 443e-03     (36.9 %), step = 1e-03       (83.3 m%)
    dc: Vg = 444e-03       (37 %), step = 1e-03       (83.3 m%)
    dc: Vg = 445e-03     (37.1 %), step = 1e-03       (83.3 m%)
    dc: Vg = 446e-03     (37.2 %), step = 1e-03       (83.3 m%)
    dc: Vg = 447e-03     (37.2 %), step = 1e-03       (83.3 m%)
    dc: Vg = 448e-03     (37.3 %), step = 1e-03       (83.3 m%)
    dc: Vg = 449e-03     (37.4 %), step = 1e-03       (83.3 m%)
    dc: Vg = 450e-03     (37.5 %), step = 1e-03       (83.3 m%)
    dc: Vg = 451e-03     (37.6 %), step = 1e-03       (83.3 m%)
    dc: Vg = 452e-03     (37.7 %), step = 1e-03       (83.3 m%)
    dc: Vg = 453e-03     (37.8 %), step = 1e-03       (83.3 m%)
    dc: Vg = 454e-03     (37.8 %), step = 1e-03       (83.3 m%)
    dc: Vg = 455e-03     (37.9 %), step = 1e-03       (83.3 m%)
    dc: Vg = 456e-03       (38 %), step = 1e-03       (83.3 m%)
    dc: Vg = 457e-03     (38.1 %), step = 1e-03       (83.3 m%)
    dc: Vg = 458e-03     (38.2 %), step = 1e-03       (83.3 m%)
    dc: Vg = 459e-03     (38.2 %), step = 1e-03       (83.3 m%)
    dc: Vg = 460e-03     (38.3 %), step = 1e-03       (83.3 m%)
    dc: Vg = 461e-03     (38.4 %), step = 1e-03       (83.3 m%)
    dc: Vg = 462e-03     (38.5 %), step = 1e-03       (83.3 m%)
    dc: Vg = 463e-03     (38.6 %), step = 1e-03       (83.3 m%)
    dc: Vg = 464e-03     (38.7 %), step = 1e-03       (83.3 m%)
    dc: Vg = 465e-03     (38.8 %), step = 1e-03       (83.3 m%)
    dc: Vg = 466e-03     (38.8 %), step = 1e-03       (83.3 m%)
    dc: Vg = 467e-03     (38.9 %), step = 1e-03       (83.3 m%)
    dc: Vg = 468e-03       (39 %), step = 1e-03       (83.3 m%)
    dc: Vg = 469e-03     (39.1 %), step = 1e-03       (83.3 m%)
    dc: Vg = 470e-03     (39.2 %), step = 1e-03       (83.3 m%)
    dc: Vg = 471e-03     (39.2 %), step = 1e-03       (83.3 m%)
    dc: Vg = 472e-03     (39.3 %), step = 1e-03       (83.3 m%)
    dc: Vg = 473e-03     (39.4 %), step = 1e-03       (83.3 m%)
    dc: Vg = 474e-03     (39.5 %), step = 1e-03       (83.3 m%)
    dc: Vg = 475e-03     (39.6 %), step = 1e-03       (83.3 m%)
    dc: Vg = 476e-03     (39.7 %), step = 1e-03       (83.3 m%)
    dc: Vg = 477e-03     (39.8 %), step = 1e-03       (83.3 m%)
    dc: Vg = 478e-03     (39.8 %), step = 1e-03       (83.3 m%)
    dc: Vg = 479e-03     (39.9 %), step = 1e-03       (83.3 m%)
    dc: Vg = 480e-03       (40 %), step = 1e-03       (83.3 m%)
    dc: Vg = 481e-03     (40.1 %), step = 1e-03       (83.3 m%)
    dc: Vg = 482e-03     (40.2 %), step = 1e-03       (83.3 m%)
    dc: Vg = 483e-03     (40.2 %), step = 1e-03       (83.3 m%)
    dc: Vg = 484e-03     (40.3 %), step = 1e-03       (83.3 m%)
    dc: Vg = 485e-03     (40.4 %), step = 1e-03       (83.3 m%)
    dc: Vg = 486e-03     (40.5 %), step = 1e-03       (83.3 m%)
    dc: Vg = 487e-03     (40.6 %), step = 1e-03       (83.3 m%)
    dc: Vg = 488e-03     (40.7 %), step = 1e-03       (83.3 m%)
    dc: Vg = 489e-03     (40.8 %), step = 1e-03       (83.3 m%)
    dc: Vg = 490e-03     (40.8 %), step = 1e-03       (83.3 m%)
    dc: Vg = 491e-03     (40.9 %), step = 1e-03       (83.3 m%)
    dc: Vg = 492e-03       (41 %), step = 1e-03       (83.3 m%)
    dc: Vg = 493e-03     (41.1 %), step = 1e-03       (83.3 m%)
    dc: Vg = 494e-03     (41.2 %), step = 1e-03       (83.3 m%)
    dc: Vg = 495e-03     (41.2 %), step = 1e-03       (83.3 m%)
    dc: Vg = 496e-03     (41.3 %), step = 1e-03       (83.3 m%)
    dc: Vg = 497e-03     (41.4 %), step = 1e-03       (83.3 m%)
    dc: Vg = 498e-03     (41.5 %), step = 1e-03       (83.3 m%)
    dc: Vg = 499e-03     (41.6 %), step = 1e-03       (83.3 m%)
    dc: Vg = 500e-03     (41.7 %), step = 1e-03       (83.3 m%)
    dc: Vg = 501e-03     (41.8 %), step = 1e-03       (83.3 m%)
    dc: Vg = 502e-03     (41.8 %), step = 1e-03       (83.3 m%)
    dc: Vg = 503e-03     (41.9 %), step = 1e-03       (83.3 m%)
    dc: Vg = 504e-03       (42 %), step = 1e-03       (83.3 m%)
    dc: Vg = 505e-03     (42.1 %), step = 1e-03       (83.3 m%)
    dc: Vg = 506e-03     (42.2 %), step = 1e-03       (83.3 m%)
    dc: Vg = 507e-03     (42.2 %), step = 1e-03       (83.3 m%)
    dc: Vg = 508e-03     (42.3 %), step = 1e-03       (83.3 m%)
    dc: Vg = 509e-03     (42.4 %), step = 1e-03       (83.3 m%)
    dc: Vg = 510e-03     (42.5 %), step = 1e-03       (83.3 m%)
    dc: Vg = 511e-03     (42.6 %), step = 1e-03       (83.3 m%)
    dc: Vg = 512e-03     (42.7 %), step = 1e-03       (83.3 m%)
    dc: Vg = 513e-03     (42.8 %), step = 1e-03       (83.3 m%)
    dc: Vg = 514e-03     (42.8 %), step = 1e-03       (83.3 m%)
    dc: Vg = 515e-03     (42.9 %), step = 1e-03       (83.3 m%)
    dc: Vg = 516e-03       (43 %), step = 1e-03       (83.3 m%)
    dc: Vg = 517e-03     (43.1 %), step = 1e-03       (83.3 m%)
    dc: Vg = 518e-03     (43.2 %), step = 1e-03       (83.3 m%)
    dc: Vg = 519e-03     (43.2 %), step = 1e-03       (83.3 m%)
    dc: Vg = 520e-03     (43.3 %), step = 1e-03       (83.3 m%)
    dc: Vg = 521e-03     (43.4 %), step = 1e-03       (83.3 m%)
    dc: Vg = 522e-03     (43.5 %), step = 1e-03       (83.3 m%)
    dc: Vg = 523e-03     (43.6 %), step = 1e-03       (83.3 m%)
    dc: Vg = 524e-03     (43.7 %), step = 1e-03       (83.3 m%)
    dc: Vg = 525e-03     (43.8 %), step = 1e-03       (83.3 m%)
    dc: Vg = 526e-03     (43.8 %), step = 1e-03       (83.3 m%)
    dc: Vg = 527e-03     (43.9 %), step = 1e-03       (83.3 m%)
    dc: Vg = 528e-03       (44 %), step = 1e-03       (83.3 m%)
    dc: Vg = 529e-03     (44.1 %), step = 1e-03       (83.3 m%)
    dc: Vg = 530e-03     (44.2 %), step = 1e-03       (83.3 m%)
    dc: Vg = 531e-03     (44.2 %), step = 1e-03       (83.3 m%)
    dc: Vg = 532e-03     (44.3 %), step = 1e-03       (83.3 m%)
    dc: Vg = 533e-03     (44.4 %), step = 1e-03       (83.3 m%)
    dc: Vg = 534e-03     (44.5 %), step = 1e-03       (83.3 m%)
    dc: Vg = 535e-03     (44.6 %), step = 1e-03       (83.3 m%)
    dc: Vg = 536e-03     (44.7 %), step = 1e-03       (83.3 m%)
    dc: Vg = 537e-03     (44.8 %), step = 1e-03       (83.3 m%)
    dc: Vg = 538e-03     (44.8 %), step = 1e-03       (83.3 m%)
    dc: Vg = 539e-03     (44.9 %), step = 1e-03       (83.3 m%)
    dc: Vg = 540e-03       (45 %), step = 1e-03       (83.3 m%)
    dc: Vg = 541e-03     (45.1 %), step = 1e-03       (83.3 m%)
    dc: Vg = 542e-03     (45.2 %), step = 1e-03       (83.3 m%)
    dc: Vg = 543e-03     (45.2 %), step = 1e-03       (83.3 m%)
    dc: Vg = 544e-03     (45.3 %), step = 1e-03       (83.3 m%)
    dc: Vg = 545e-03     (45.4 %), step = 1e-03       (83.3 m%)
    dc: Vg = 546e-03     (45.5 %), step = 1e-03       (83.3 m%)
    dc: Vg = 547e-03     (45.6 %), step = 1e-03       (83.3 m%)
    dc: Vg = 548e-03     (45.7 %), step = 1e-03       (83.3 m%)
    dc: Vg = 549e-03     (45.8 %), step = 1e-03       (83.3 m%)
    dc: Vg = 550e-03     (45.8 %), step = 1e-03       (83.3 m%)
    dc: Vg = 551e-03     (45.9 %), step = 1e-03       (83.3 m%)
    dc: Vg = 552e-03       (46 %), step = 1e-03       (83.3 m%)
    dc: Vg = 553e-03     (46.1 %), step = 1e-03       (83.3 m%)
    dc: Vg = 554e-03     (46.2 %), step = 1e-03       (83.3 m%)
    dc: Vg = 555e-03     (46.2 %), step = 1e-03       (83.3 m%)
    dc: Vg = 556e-03     (46.3 %), step = 1e-03       (83.3 m%)
    dc: Vg = 557e-03     (46.4 %), step = 1e-03       (83.3 m%)
    dc: Vg = 558e-03     (46.5 %), step = 1e-03       (83.3 m%)
    dc: Vg = 559e-03     (46.6 %), step = 1e-03       (83.3 m%)
    dc: Vg = 560e-03     (46.7 %), step = 1e-03       (83.3 m%)
    dc: Vg = 561e-03     (46.8 %), step = 1e-03       (83.3 m%)
    dc: Vg = 562e-03     (46.8 %), step = 1e-03       (83.3 m%)
    dc: Vg = 563e-03     (46.9 %), step = 1e-03       (83.3 m%)
    dc: Vg = 564e-03       (47 %), step = 1e-03       (83.3 m%)
    dc: Vg = 565e-03     (47.1 %), step = 1e-03       (83.3 m%)
    dc: Vg = 566e-03     (47.2 %), step = 1e-03       (83.3 m%)
    dc: Vg = 567e-03     (47.2 %), step = 1e-03       (83.3 m%)
    dc: Vg = 568e-03     (47.3 %), step = 1e-03       (83.3 m%)
    dc: Vg = 569e-03     (47.4 %), step = 1e-03       (83.3 m%)
    dc: Vg = 570e-03     (47.5 %), step = 1e-03       (83.3 m%)
    dc: Vg = 571e-03     (47.6 %), step = 1e-03       (83.3 m%)
    dc: Vg = 572e-03     (47.7 %), step = 1e-03       (83.3 m%)
    dc: Vg = 573e-03     (47.8 %), step = 1e-03       (83.3 m%)
    dc: Vg = 574e-03     (47.8 %), step = 1e-03       (83.3 m%)
    dc: Vg = 575e-03     (47.9 %), step = 1e-03       (83.3 m%)
    dc: Vg = 576e-03       (48 %), step = 1e-03       (83.3 m%)
    dc: Vg = 577e-03     (48.1 %), step = 1e-03       (83.3 m%)
    dc: Vg = 578e-03     (48.2 %), step = 1e-03       (83.3 m%)
    dc: Vg = 579e-03     (48.2 %), step = 1e-03       (83.3 m%)
    dc: Vg = 580e-03     (48.3 %), step = 1e-03       (83.3 m%)
    dc: Vg = 581e-03     (48.4 %), step = 1e-03       (83.3 m%)
    dc: Vg = 582e-03     (48.5 %), step = 1e-03       (83.3 m%)
    dc: Vg = 583e-03     (48.6 %), step = 1e-03       (83.3 m%)
    dc: Vg = 584e-03     (48.7 %), step = 1e-03       (83.3 m%)
    dc: Vg = 585e-03     (48.8 %), step = 1e-03       (83.3 m%)
    dc: Vg = 586e-03     (48.8 %), step = 1e-03       (83.3 m%)
    dc: Vg = 587e-03     (48.9 %), step = 1e-03       (83.3 m%)
    dc: Vg = 588e-03       (49 %), step = 1e-03       (83.3 m%)
    dc: Vg = 589e-03     (49.1 %), step = 1e-03       (83.3 m%)
    dc: Vg = 590e-03     (49.2 %), step = 1e-03       (83.3 m%)
    dc: Vg = 591e-03     (49.2 %), step = 1e-03       (83.3 m%)
    dc: Vg = 592e-03     (49.3 %), step = 1e-03       (83.3 m%)
    dc: Vg = 593e-03     (49.4 %), step = 1e-03       (83.3 m%)
    dc: Vg = 594e-03     (49.5 %), step = 1e-03       (83.3 m%)
    dc: Vg = 595e-03     (49.6 %), step = 1e-03       (83.3 m%)
    dc: Vg = 596e-03     (49.7 %), step = 1e-03       (83.3 m%)
    dc: Vg = 597e-03     (49.8 %), step = 1e-03       (83.3 m%)
    dc: Vg = 598e-03     (49.8 %), step = 1e-03       (83.3 m%)
    dc: Vg = 599e-03     (49.9 %), step = 1e-03       (83.3 m%)
    dc: Vg = 600e-03       (50 %), step = 1e-03       (83.3 m%)
    dc: Vg = 601e-03     (50.1 %), step = 1e-03       (83.3 m%)
    dc: Vg = 602e-03     (50.2 %), step = 1e-03       (83.3 m%)
    dc: Vg = 603e-03     (50.2 %), step = 1e-03       (83.3 m%)
    dc: Vg = 604e-03     (50.3 %), step = 1e-03       (83.3 m%)
    dc: Vg = 605e-03     (50.4 %), step = 1e-03       (83.3 m%)
    dc: Vg = 606e-03     (50.5 %), step = 1e-03       (83.3 m%)
    dc: Vg = 607e-03     (50.6 %), step = 1e-03       (83.3 m%)
    dc: Vg = 608e-03     (50.7 %), step = 1e-03       (83.3 m%)
    dc: Vg = 609e-03     (50.7 %), step = 1e-03       (83.3 m%)
    dc: Vg = 610e-03     (50.8 %), step = 1e-03       (83.3 m%)
    dc: Vg = 611e-03     (50.9 %), step = 1e-03       (83.3 m%)
    dc: Vg = 612e-03       (51 %), step = 1e-03       (83.3 m%)
    dc: Vg = 613e-03     (51.1 %), step = 1e-03       (83.3 m%)
    dc: Vg = 614e-03     (51.2 %), step = 1e-03       (83.3 m%)
    dc: Vg = 615e-03     (51.2 %), step = 1e-03       (83.3 m%)
    dc: Vg = 616e-03     (51.3 %), step = 1e-03       (83.3 m%)
    dc: Vg = 617e-03     (51.4 %), step = 1e-03       (83.3 m%)
    dc: Vg = 618e-03     (51.5 %), step = 1e-03       (83.3 m%)
    dc: Vg = 619e-03     (51.6 %), step = 1e-03       (83.3 m%)
    dc: Vg = 620e-03     (51.7 %), step = 1e-03       (83.3 m%)
    dc: Vg = 621e-03     (51.7 %), step = 1e-03       (83.3 m%)
    dc: Vg = 622e-03     (51.8 %), step = 1e-03       (83.3 m%)
    dc: Vg = 623e-03     (51.9 %), step = 1e-03       (83.3 m%)
    dc: Vg = 624e-03       (52 %), step = 1e-03       (83.3 m%)
    dc: Vg = 625e-03     (52.1 %), step = 1e-03       (83.3 m%)
    dc: Vg = 626e-03     (52.2 %), step = 1e-03       (83.3 m%)
    dc: Vg = 627e-03     (52.2 %), step = 1e-03       (83.3 m%)
    dc: Vg = 628e-03     (52.3 %), step = 1e-03       (83.3 m%)
    dc: Vg = 629e-03     (52.4 %), step = 1e-03       (83.3 m%)
    dc: Vg = 630e-03     (52.5 %), step = 1e-03       (83.3 m%)
    dc: Vg = 631e-03     (52.6 %), step = 1e-03       (83.3 m%)
    dc: Vg = 632e-03     (52.7 %), step = 1e-03       (83.3 m%)
    dc: Vg = 633e-03     (52.8 %), step = 1e-03       (83.3 m%)
    dc: Vg = 634e-03     (52.8 %), step = 1e-03       (83.3 m%)
    dc: Vg = 635e-03     (52.9 %), step = 1e-03       (83.3 m%)
    dc: Vg = 636e-03       (53 %), step = 1e-03       (83.3 m%)
    dc: Vg = 637e-03     (53.1 %), step = 1e-03       (83.3 m%)
    dc: Vg = 638e-03     (53.2 %), step = 1e-03       (83.3 m%)
    dc: Vg = 639e-03     (53.2 %), step = 1e-03       (83.3 m%)
    dc: Vg = 640e-03     (53.3 %), step = 1e-03       (83.3 m%)
    dc: Vg = 641e-03     (53.4 %), step = 1e-03       (83.3 m%)
    dc: Vg = 642e-03     (53.5 %), step = 1e-03       (83.3 m%)
    dc: Vg = 643e-03     (53.6 %), step = 1e-03       (83.3 m%)
    dc: Vg = 644e-03     (53.7 %), step = 1e-03       (83.3 m%)
    dc: Vg = 645e-03     (53.8 %), step = 1e-03       (83.3 m%)
    dc: Vg = 646e-03     (53.8 %), step = 1e-03       (83.3 m%)
    dc: Vg = 647e-03     (53.9 %), step = 1e-03       (83.3 m%)
    dc: Vg = 648e-03       (54 %), step = 1e-03       (83.3 m%)
    dc: Vg = 649e-03     (54.1 %), step = 1e-03       (83.3 m%)
    dc: Vg = 650e-03     (54.2 %), step = 1e-03       (83.3 m%)
    dc: Vg = 651e-03     (54.2 %), step = 1e-03       (83.3 m%)
    dc: Vg = 652e-03     (54.3 %), step = 1e-03       (83.3 m%)
    dc: Vg = 653e-03     (54.4 %), step = 1e-03       (83.3 m%)
    dc: Vg = 654e-03     (54.5 %), step = 1e-03       (83.3 m%)
    dc: Vg = 655e-03     (54.6 %), step = 1e-03       (83.3 m%)
    dc: Vg = 656e-03     (54.7 %), step = 1e-03       (83.3 m%)
    dc: Vg = 657e-03     (54.8 %), step = 1e-03       (83.3 m%)
    dc: Vg = 658e-03     (54.8 %), step = 1e-03       (83.3 m%)
    dc: Vg = 659e-03     (54.9 %), step = 1e-03       (83.3 m%)
    dc: Vg = 660e-03       (55 %), step = 1e-03       (83.3 m%)
    dc: Vg = 661e-03     (55.1 %), step = 1e-03       (83.3 m%)
    dc: Vg = 662e-03     (55.2 %), step = 1e-03       (83.3 m%)
    dc: Vg = 663e-03     (55.2 %), step = 1e-03       (83.3 m%)
    dc: Vg = 664e-03     (55.3 %), step = 1e-03       (83.3 m%)
    dc: Vg = 665e-03     (55.4 %), step = 1e-03       (83.3 m%)
    dc: Vg = 666e-03     (55.5 %), step = 1e-03       (83.3 m%)
    dc: Vg = 667e-03     (55.6 %), step = 1e-03       (83.3 m%)
    dc: Vg = 668e-03     (55.7 %), step = 1e-03       (83.3 m%)
    dc: Vg = 669e-03     (55.8 %), step = 1e-03       (83.3 m%)
    dc: Vg = 670e-03     (55.8 %), step = 1e-03       (83.3 m%)
    dc: Vg = 671e-03     (55.9 %), step = 1e-03       (83.3 m%)
    dc: Vg = 672e-03       (56 %), step = 1e-03       (83.3 m%)
    dc: Vg = 673e-03     (56.1 %), step = 1e-03       (83.3 m%)
    dc: Vg = 674e-03     (56.2 %), step = 1e-03       (83.3 m%)
    dc: Vg = 675e-03     (56.2 %), step = 1e-03       (83.3 m%)
    dc: Vg = 676e-03     (56.3 %), step = 1e-03       (83.3 m%)
    dc: Vg = 677e-03     (56.4 %), step = 1e-03       (83.3 m%)
    dc: Vg = 678e-03     (56.5 %), step = 1e-03       (83.3 m%)
    dc: Vg = 679e-03     (56.6 %), step = 1e-03       (83.3 m%)
    dc: Vg = 680e-03     (56.7 %), step = 1e-03       (83.3 m%)
    dc: Vg = 681e-03     (56.8 %), step = 1e-03       (83.3 m%)
    dc: Vg = 682e-03     (56.8 %), step = 1e-03       (83.3 m%)
    dc: Vg = 683e-03     (56.9 %), step = 1e-03       (83.3 m%)
    dc: Vg = 684e-03       (57 %), step = 1e-03       (83.3 m%)
    dc: Vg = 685e-03     (57.1 %), step = 1e-03       (83.3 m%)
    dc: Vg = 686e-03     (57.2 %), step = 1e-03       (83.3 m%)
    dc: Vg = 687e-03     (57.2 %), step = 1e-03       (83.3 m%)
    dc: Vg = 688e-03     (57.3 %), step = 1e-03       (83.3 m%)
    dc: Vg = 689e-03     (57.4 %), step = 1e-03       (83.3 m%)
    dc: Vg = 690e-03     (57.5 %), step = 1e-03       (83.3 m%)
    dc: Vg = 691e-03     (57.6 %), step = 1e-03       (83.3 m%)
    dc: Vg = 692e-03     (57.7 %), step = 1e-03       (83.3 m%)
    dc: Vg = 693e-03     (57.8 %), step = 1e-03       (83.3 m%)
    dc: Vg = 694e-03     (57.8 %), step = 1e-03       (83.3 m%)
    dc: Vg = 695e-03     (57.9 %), step = 1e-03       (83.3 m%)
    dc: Vg = 696e-03       (58 %), step = 1e-03       (83.3 m%)
    dc: Vg = 697e-03     (58.1 %), step = 1e-03       (83.3 m%)
    dc: Vg = 698e-03     (58.2 %), step = 1e-03       (83.3 m%)
    dc: Vg = 699e-03     (58.2 %), step = 1e-03       (83.3 m%)
    dc: Vg = 700e-03     (58.3 %), step = 1e-03       (83.3 m%)
    dc: Vg = 701e-03     (58.4 %), step = 1e-03       (83.3 m%)
    dc: Vg = 702e-03     (58.5 %), step = 1e-03       (83.3 m%)
    dc: Vg = 703e-03     (58.6 %), step = 1e-03       (83.3 m%)
    dc: Vg = 704e-03     (58.7 %), step = 1e-03       (83.3 m%)
    dc: Vg = 705e-03     (58.8 %), step = 1e-03       (83.3 m%)
    dc: Vg = 706e-03     (58.8 %), step = 1e-03       (83.3 m%)
    dc: Vg = 707e-03     (58.9 %), step = 1e-03       (83.3 m%)
    dc: Vg = 708e-03       (59 %), step = 1e-03       (83.3 m%)
    dc: Vg = 709e-03     (59.1 %), step = 1e-03       (83.3 m%)
    dc: Vg = 710e-03     (59.2 %), step = 1e-03       (83.3 m%)
    dc: Vg = 711e-03     (59.2 %), step = 1e-03       (83.3 m%)
    dc: Vg = 712e-03     (59.3 %), step = 1e-03       (83.3 m%)
    dc: Vg = 713e-03     (59.4 %), step = 1e-03       (83.3 m%)
    dc: Vg = 714e-03     (59.5 %), step = 1e-03       (83.3 m%)
    dc: Vg = 715e-03     (59.6 %), step = 1e-03       (83.3 m%)
    dc: Vg = 716e-03     (59.7 %), step = 1e-03       (83.3 m%)
    dc: Vg = 717e-03     (59.8 %), step = 1e-03       (83.3 m%)
    dc: Vg = 718e-03     (59.8 %), step = 1e-03       (83.3 m%)
    dc: Vg = 719e-03     (59.9 %), step = 1e-03       (83.3 m%)
    dc: Vg = 720e-03       (60 %), step = 1e-03       (83.3 m%)
    dc: Vg = 721e-03     (60.1 %), step = 1e-03       (83.3 m%)
    dc: Vg = 722e-03     (60.2 %), step = 1e-03       (83.3 m%)
    dc: Vg = 723e-03     (60.2 %), step = 1e-03       (83.3 m%)
    dc: Vg = 724e-03     (60.3 %), step = 1e-03       (83.3 m%)
    dc: Vg = 725e-03     (60.4 %), step = 1e-03       (83.3 m%)
    dc: Vg = 726e-03     (60.5 %), step = 1e-03       (83.3 m%)
    dc: Vg = 727e-03     (60.6 %), step = 1e-03       (83.3 m%)
    dc: Vg = 728e-03     (60.7 %), step = 1e-03       (83.3 m%)
    dc: Vg = 729e-03     (60.8 %), step = 1e-03       (83.3 m%)
    dc: Vg = 730e-03     (60.8 %), step = 1e-03       (83.3 m%)
    dc: Vg = 731e-03     (60.9 %), step = 1e-03       (83.3 m%)
    dc: Vg = 732e-03       (61 %), step = 1e-03       (83.3 m%)
    dc: Vg = 733e-03     (61.1 %), step = 1e-03       (83.3 m%)
    dc: Vg = 734e-03     (61.2 %), step = 1e-03       (83.3 m%)
    dc: Vg = 735e-03     (61.3 %), step = 1e-03       (83.3 m%)
    dc: Vg = 736e-03     (61.3 %), step = 1e-03       (83.3 m%)
    dc: Vg = 737e-03     (61.4 %), step = 1e-03       (83.3 m%)
    dc: Vg = 738e-03     (61.5 %), step = 1e-03       (83.3 m%)
    dc: Vg = 739e-03     (61.6 %), step = 1e-03       (83.3 m%)
    dc: Vg = 740e-03     (61.7 %), step = 1e-03       (83.3 m%)
    dc: Vg = 741e-03     (61.8 %), step = 1e-03       (83.3 m%)
    dc: Vg = 742e-03     (61.8 %), step = 1e-03       (83.3 m%)
    dc: Vg = 743e-03     (61.9 %), step = 1e-03       (83.3 m%)
    dc: Vg = 744e-03       (62 %), step = 1e-03       (83.3 m%)
    dc: Vg = 745e-03     (62.1 %), step = 1e-03       (83.3 m%)
    dc: Vg = 746e-03     (62.2 %), step = 1e-03       (83.3 m%)
    dc: Vg = 747e-03     (62.3 %), step = 1e-03       (83.3 m%)
    dc: Vg = 748e-03     (62.3 %), step = 1e-03       (83.3 m%)
    dc: Vg = 749e-03     (62.4 %), step = 1e-03       (83.3 m%)
    dc: Vg = 750e-03     (62.5 %), step = 1e-03       (83.3 m%)
    dc: Vg = 751e-03     (62.6 %), step = 1e-03       (83.3 m%)
    dc: Vg = 752e-03     (62.7 %), step = 1e-03       (83.3 m%)
    dc: Vg = 753e-03     (62.7 %), step = 1e-03       (83.3 m%)
    dc: Vg = 754e-03     (62.8 %), step = 1e-03       (83.3 m%)
    dc: Vg = 755e-03     (62.9 %), step = 1e-03       (83.3 m%)
    dc: Vg = 756e-03       (63 %), step = 1e-03       (83.3 m%)
    dc: Vg = 757e-03     (63.1 %), step = 1e-03       (83.3 m%)
    dc: Vg = 758e-03     (63.2 %), step = 1e-03       (83.3 m%)
    dc: Vg = 759e-03     (63.2 %), step = 1e-03       (83.3 m%)
    dc: Vg = 760e-03     (63.3 %), step = 1e-03       (83.3 m%)
    dc: Vg = 761e-03     (63.4 %), step = 1e-03       (83.3 m%)
    dc: Vg = 762e-03     (63.5 %), step = 1e-03       (83.3 m%)
    dc: Vg = 763e-03     (63.6 %), step = 1e-03       (83.3 m%)
    dc: Vg = 764e-03     (63.7 %), step = 1e-03       (83.3 m%)
    dc: Vg = 765e-03     (63.7 %), step = 1e-03       (83.3 m%)
    dc: Vg = 766e-03     (63.8 %), step = 1e-03       (83.3 m%)
    dc: Vg = 767e-03     (63.9 %), step = 1e-03       (83.3 m%)
    dc: Vg = 768e-03       (64 %), step = 1e-03       (83.3 m%)
    dc: Vg = 769e-03     (64.1 %), step = 1e-03       (83.3 m%)
    dc: Vg = 770e-03     (64.2 %), step = 1e-03       (83.3 m%)
    dc: Vg = 771e-03     (64.2 %), step = 1e-03       (83.3 m%)
    dc: Vg = 772e-03     (64.3 %), step = 1e-03       (83.3 m%)
    dc: Vg = 773e-03     (64.4 %), step = 1e-03       (83.3 m%)
    dc: Vg = 774e-03     (64.5 %), step = 1e-03       (83.3 m%)
    dc: Vg = 775e-03     (64.6 %), step = 1e-03       (83.3 m%)
    dc: Vg = 776e-03     (64.7 %), step = 1e-03       (83.3 m%)
    dc: Vg = 777e-03     (64.8 %), step = 1e-03       (83.3 m%)
    dc: Vg = 778e-03     (64.8 %), step = 1e-03       (83.3 m%)
    dc: Vg = 779e-03     (64.9 %), step = 1e-03       (83.3 m%)
    dc: Vg = 780e-03       (65 %), step = 1e-03       (83.3 m%)
    dc: Vg = 781e-03     (65.1 %), step = 1e-03       (83.3 m%)
    dc: Vg = 782e-03     (65.2 %), step = 1e-03       (83.3 m%)
    dc: Vg = 783e-03     (65.2 %), step = 1e-03       (83.3 m%)
    dc: Vg = 784e-03     (65.3 %), step = 1e-03       (83.3 m%)
    dc: Vg = 785e-03     (65.4 %), step = 1e-03       (83.3 m%)
    dc: Vg = 786e-03     (65.5 %), step = 1e-03       (83.3 m%)
    dc: Vg = 787e-03     (65.6 %), step = 1e-03       (83.3 m%)
    dc: Vg = 788e-03     (65.7 %), step = 1e-03       (83.3 m%)
    dc: Vg = 789e-03     (65.8 %), step = 1e-03       (83.3 m%)
    dc: Vg = 790e-03     (65.8 %), step = 1e-03       (83.3 m%)
    dc: Vg = 791e-03     (65.9 %), step = 1e-03       (83.3 m%)
    dc: Vg = 792e-03       (66 %), step = 1e-03       (83.3 m%)
    dc: Vg = 793e-03     (66.1 %), step = 1e-03       (83.3 m%)
    dc: Vg = 794e-03     (66.2 %), step = 1e-03       (83.3 m%)
    dc: Vg = 795e-03     (66.2 %), step = 1e-03       (83.3 m%)
    dc: Vg = 796e-03     (66.3 %), step = 1e-03       (83.3 m%)
    dc: Vg = 797e-03     (66.4 %), step = 1e-03       (83.3 m%)
    dc: Vg = 798e-03     (66.5 %), step = 1e-03       (83.3 m%)
    dc: Vg = 799e-03     (66.6 %), step = 1e-03       (83.3 m%)
    dc: Vg = 800e-03     (66.7 %), step = 1e-03       (83.3 m%)
    dc: Vg = 801e-03     (66.8 %), step = 1e-03       (83.3 m%)
    dc: Vg = 802e-03     (66.8 %), step = 1e-03       (83.3 m%)
    dc: Vg = 803e-03     (66.9 %), step = 1e-03       (83.3 m%)
    dc: Vg = 804e-03       (67 %), step = 1e-03       (83.3 m%)
    dc: Vg = 805e-03     (67.1 %), step = 1e-03       (83.3 m%)
    dc: Vg = 806e-03     (67.2 %), step = 1e-03       (83.3 m%)
    dc: Vg = 807e-03     (67.2 %), step = 1e-03       (83.3 m%)
    dc: Vg = 808e-03     (67.3 %), step = 1e-03       (83.3 m%)
    dc: Vg = 809e-03     (67.4 %), step = 1e-03       (83.3 m%)
    dc: Vg = 810e-03     (67.5 %), step = 1e-03       (83.3 m%)
    dc: Vg = 811e-03     (67.6 %), step = 1e-03       (83.3 m%)
    dc: Vg = 812e-03     (67.7 %), step = 1e-03       (83.3 m%)
    dc: Vg = 813e-03     (67.8 %), step = 1e-03       (83.3 m%)
    dc: Vg = 814e-03     (67.8 %), step = 1e-03       (83.3 m%)
    dc: Vg = 815e-03     (67.9 %), step = 1e-03       (83.3 m%)
    dc: Vg = 816e-03       (68 %), step = 1e-03       (83.3 m%)
    dc: Vg = 817e-03     (68.1 %), step = 1e-03       (83.3 m%)
    dc: Vg = 818e-03     (68.2 %), step = 1e-03       (83.3 m%)
    dc: Vg = 819e-03     (68.2 %), step = 1e-03       (83.3 m%)
    dc: Vg = 820e-03     (68.3 %), step = 1e-03       (83.3 m%)
    dc: Vg = 821e-03     (68.4 %), step = 1e-03       (83.3 m%)
    dc: Vg = 822e-03     (68.5 %), step = 1e-03       (83.3 m%)
    dc: Vg = 823e-03     (68.6 %), step = 1e-03       (83.3 m%)
    dc: Vg = 824e-03     (68.7 %), step = 1e-03       (83.3 m%)
    dc: Vg = 825e-03     (68.8 %), step = 1e-03       (83.3 m%)
    dc: Vg = 826e-03     (68.8 %), step = 1e-03       (83.3 m%)
    dc: Vg = 827e-03     (68.9 %), step = 1e-03       (83.3 m%)
    dc: Vg = 828e-03       (69 %), step = 1e-03       (83.3 m%)
    dc: Vg = 829e-03     (69.1 %), step = 1e-03       (83.3 m%)
    dc: Vg = 830e-03     (69.2 %), step = 1e-03       (83.3 m%)
    dc: Vg = 831e-03     (69.2 %), step = 1e-03       (83.3 m%)
    dc: Vg = 832e-03     (69.3 %), step = 1e-03       (83.3 m%)
    dc: Vg = 833e-03     (69.4 %), step = 1e-03       (83.3 m%)
    dc: Vg = 834e-03     (69.5 %), step = 1e-03       (83.3 m%)
    dc: Vg = 835e-03     (69.6 %), step = 1e-03       (83.3 m%)
    dc: Vg = 836e-03     (69.7 %), step = 1e-03       (83.3 m%)
    dc: Vg = 837e-03     (69.8 %), step = 1e-03       (83.3 m%)
    dc: Vg = 838e-03     (69.8 %), step = 1e-03       (83.3 m%)
    dc: Vg = 839e-03     (69.9 %), step = 1e-03       (83.3 m%)
    dc: Vg = 840e-03       (70 %), step = 1e-03       (83.3 m%)
    dc: Vg = 841e-03     (70.1 %), step = 1e-03       (83.3 m%)
    dc: Vg = 842e-03     (70.2 %), step = 1e-03       (83.3 m%)
    dc: Vg = 843e-03     (70.2 %), step = 1e-03       (83.3 m%)
    dc: Vg = 844e-03     (70.3 %), step = 1e-03       (83.3 m%)
    dc: Vg = 845e-03     (70.4 %), step = 1e-03       (83.3 m%)
    dc: Vg = 846e-03     (70.5 %), step = 1e-03       (83.3 m%)
    dc: Vg = 847e-03     (70.6 %), step = 1e-03       (83.3 m%)
    dc: Vg = 848e-03     (70.7 %), step = 1e-03       (83.3 m%)
    dc: Vg = 849e-03     (70.8 %), step = 1e-03       (83.3 m%)
    dc: Vg = 850e-03     (70.8 %), step = 1e-03       (83.3 m%)
    dc: Vg = 851e-03     (70.9 %), step = 1e-03       (83.3 m%)
    dc: Vg = 852e-03       (71 %), step = 1e-03       (83.3 m%)
    dc: Vg = 853e-03     (71.1 %), step = 1e-03       (83.3 m%)
    dc: Vg = 854e-03     (71.2 %), step = 1e-03       (83.3 m%)
    dc: Vg = 855e-03     (71.2 %), step = 1e-03       (83.3 m%)
    dc: Vg = 856e-03     (71.3 %), step = 1e-03       (83.3 m%)
    dc: Vg = 857e-03     (71.4 %), step = 1e-03       (83.3 m%)
    dc: Vg = 858e-03     (71.5 %), step = 1e-03       (83.3 m%)
    dc: Vg = 859e-03     (71.6 %), step = 1e-03       (83.3 m%)
    dc: Vg = 860e-03     (71.7 %), step = 1e-03       (83.3 m%)
    dc: Vg = 861e-03     (71.8 %), step = 1e-03       (83.3 m%)
    dc: Vg = 862e-03     (71.8 %), step = 1e-03       (83.3 m%)
    dc: Vg = 863e-03     (71.9 %), step = 1e-03       (83.3 m%)
    dc: Vg = 864e-03       (72 %), step = 1e-03       (83.3 m%)
    dc: Vg = 865e-03     (72.1 %), step = 1e-03       (83.3 m%)
    dc: Vg = 866e-03     (72.2 %), step = 1e-03       (83.3 m%)
    dc: Vg = 867e-03     (72.2 %), step = 1e-03       (83.3 m%)
    dc: Vg = 868e-03     (72.3 %), step = 1e-03       (83.3 m%)
    dc: Vg = 869e-03     (72.4 %), step = 1e-03       (83.3 m%)
    dc: Vg = 870e-03     (72.5 %), step = 1e-03       (83.3 m%)
    dc: Vg = 871e-03     (72.6 %), step = 1e-03       (83.3 m%)
    dc: Vg = 872e-03     (72.7 %), step = 1e-03       (83.3 m%)
    dc: Vg = 873e-03     (72.8 %), step = 1e-03       (83.3 m%)
    dc: Vg = 874e-03     (72.8 %), step = 1e-03       (83.3 m%)
    dc: Vg = 875e-03     (72.9 %), step = 1e-03       (83.3 m%)
    dc: Vg = 876e-03       (73 %), step = 1e-03       (83.3 m%)
    dc: Vg = 877e-03     (73.1 %), step = 1e-03       (83.3 m%)
    dc: Vg = 878e-03     (73.2 %), step = 1e-03       (83.3 m%)
    dc: Vg = 879e-03     (73.2 %), step = 1e-03       (83.3 m%)
    dc: Vg = 880e-03     (73.3 %), step = 1e-03       (83.3 m%)
    dc: Vg = 881e-03     (73.4 %), step = 1e-03       (83.3 m%)
    dc: Vg = 882e-03     (73.5 %), step = 1e-03       (83.3 m%)
    dc: Vg = 883e-03     (73.6 %), step = 1e-03       (83.3 m%)
    dc: Vg = 884e-03     (73.7 %), step = 1e-03       (83.3 m%)
    dc: Vg = 885e-03     (73.8 %), step = 1e-03       (83.3 m%)
    dc: Vg = 886e-03     (73.8 %), step = 1e-03       (83.3 m%)
    dc: Vg = 887e-03     (73.9 %), step = 1e-03       (83.3 m%)
    dc: Vg = 888e-03       (74 %), step = 1e-03       (83.3 m%)
    dc: Vg = 889e-03     (74.1 %), step = 1e-03       (83.3 m%)
    dc: Vg = 890e-03     (74.2 %), step = 1e-03       (83.3 m%)
    dc: Vg = 891e-03     (74.2 %), step = 1e-03       (83.3 m%)
    dc: Vg = 892e-03     (74.3 %), step = 1e-03       (83.3 m%)
    dc: Vg = 893e-03     (74.4 %), step = 1e-03       (83.3 m%)
    dc: Vg = 894e-03     (74.5 %), step = 1e-03       (83.3 m%)
    dc: Vg = 895e-03     (74.6 %), step = 1e-03       (83.3 m%)
    dc: Vg = 896e-03     (74.7 %), step = 1e-03       (83.3 m%)
    dc: Vg = 897e-03     (74.8 %), step = 1e-03       (83.3 m%)
    dc: Vg = 898e-03     (74.8 %), step = 1e-03       (83.3 m%)
    dc: Vg = 899e-03     (74.9 %), step = 1e-03       (83.3 m%)
    dc: Vg = 900e-03       (75 %), step = 1e-03       (83.3 m%)
    dc: Vg = 901e-03     (75.1 %), step = 1e-03       (83.3 m%)
    dc: Vg = 902e-03     (75.2 %), step = 1e-03       (83.3 m%)
    dc: Vg = 903e-03     (75.2 %), step = 1e-03       (83.3 m%)
    dc: Vg = 904e-03     (75.3 %), step = 1e-03       (83.3 m%)
    dc: Vg = 905e-03     (75.4 %), step = 1e-03       (83.3 m%)
    dc: Vg = 906e-03     (75.5 %), step = 1e-03       (83.3 m%)
    dc: Vg = 907e-03     (75.6 %), step = 1e-03       (83.3 m%)
    dc: Vg = 908e-03     (75.7 %), step = 1e-03       (83.3 m%)
    dc: Vg = 909e-03     (75.8 %), step = 1e-03       (83.3 m%)
    dc: Vg = 910e-03     (75.8 %), step = 1e-03       (83.3 m%)
    dc: Vg = 911e-03     (75.9 %), step = 1e-03       (83.3 m%)
    dc: Vg = 912e-03       (76 %), step = 1e-03       (83.3 m%)
    dc: Vg = 913e-03     (76.1 %), step = 1e-03       (83.3 m%)
    dc: Vg = 914e-03     (76.2 %), step = 1e-03       (83.3 m%)
    dc: Vg = 915e-03     (76.2 %), step = 1e-03       (83.3 m%)
    dc: Vg = 916e-03     (76.3 %), step = 1e-03       (83.3 m%)
    dc: Vg = 917e-03     (76.4 %), step = 1e-03       (83.3 m%)
    dc: Vg = 918e-03     (76.5 %), step = 1e-03       (83.3 m%)
    dc: Vg = 919e-03     (76.6 %), step = 1e-03       (83.3 m%)
    dc: Vg = 920e-03     (76.7 %), step = 1e-03       (83.3 m%)
    dc: Vg = 921e-03     (76.8 %), step = 1e-03       (83.3 m%)
    dc: Vg = 922e-03     (76.8 %), step = 1e-03       (83.3 m%)
    dc: Vg = 923e-03     (76.9 %), step = 1e-03       (83.3 m%)
    dc: Vg = 924e-03       (77 %), step = 1e-03       (83.3 m%)
    dc: Vg = 925e-03     (77.1 %), step = 1e-03       (83.3 m%)
    dc: Vg = 926e-03     (77.2 %), step = 1e-03       (83.3 m%)
    dc: Vg = 927e-03     (77.2 %), step = 1e-03       (83.3 m%)
    dc: Vg = 928e-03     (77.3 %), step = 1e-03       (83.3 m%)
    dc: Vg = 929e-03     (77.4 %), step = 1e-03       (83.3 m%)
    dc: Vg = 930e-03     (77.5 %), step = 1e-03       (83.3 m%)
    dc: Vg = 931e-03     (77.6 %), step = 1e-03       (83.3 m%)
    dc: Vg = 932e-03     (77.7 %), step = 1e-03       (83.3 m%)
    dc: Vg = 933e-03     (77.8 %), step = 1e-03       (83.3 m%)
    dc: Vg = 934e-03     (77.8 %), step = 1e-03       (83.3 m%)
    dc: Vg = 935e-03     (77.9 %), step = 1e-03       (83.3 m%)
    dc: Vg = 936e-03       (78 %), step = 1e-03       (83.3 m%)
    dc: Vg = 937e-03     (78.1 %), step = 1e-03       (83.3 m%)
    dc: Vg = 938e-03     (78.2 %), step = 1e-03       (83.3 m%)
    dc: Vg = 939e-03     (78.2 %), step = 1e-03       (83.3 m%)
    dc: Vg = 940e-03     (78.3 %), step = 1e-03       (83.3 m%)
    dc: Vg = 941e-03     (78.4 %), step = 1e-03       (83.3 m%)
    dc: Vg = 942e-03     (78.5 %), step = 1e-03       (83.3 m%)
    dc: Vg = 943e-03     (78.6 %), step = 1e-03       (83.3 m%)
    dc: Vg = 944e-03     (78.7 %), step = 1e-03       (83.3 m%)
    dc: Vg = 945e-03     (78.8 %), step = 1e-03       (83.3 m%)
    dc: Vg = 946e-03     (78.8 %), step = 1e-03       (83.3 m%)
    dc: Vg = 947e-03     (78.9 %), step = 1e-03       (83.3 m%)
    dc: Vg = 948e-03       (79 %), step = 1e-03       (83.3 m%)
    dc: Vg = 949e-03     (79.1 %), step = 1e-03       (83.3 m%)
    dc: Vg = 950e-03     (79.2 %), step = 1e-03       (83.3 m%)
    dc: Vg = 951e-03     (79.2 %), step = 1e-03       (83.3 m%)
    dc: Vg = 952e-03     (79.3 %), step = 1e-03       (83.3 m%)
    dc: Vg = 953e-03     (79.4 %), step = 1e-03       (83.3 m%)
    dc: Vg = 954e-03     (79.5 %), step = 1e-03       (83.3 m%)
    dc: Vg = 955e-03     (79.6 %), step = 1e-03       (83.3 m%)
    dc: Vg = 956e-03     (79.7 %), step = 1e-03       (83.3 m%)
    dc: Vg = 957e-03     (79.8 %), step = 1e-03       (83.3 m%)
    dc: Vg = 958e-03     (79.8 %), step = 1e-03       (83.3 m%)
    dc: Vg = 959e-03     (79.9 %), step = 1e-03       (83.3 m%)
    dc: Vg = 960e-03       (80 %), step = 1e-03       (83.3 m%)
    dc: Vg = 961e-03     (80.1 %), step = 1e-03       (83.3 m%)
    dc: Vg = 962e-03     (80.2 %), step = 1e-03       (83.3 m%)
    dc: Vg = 963e-03     (80.2 %), step = 1e-03       (83.3 m%)
    dc: Vg = 964e-03     (80.3 %), step = 1e-03       (83.3 m%)
    dc: Vg = 965e-03     (80.4 %), step = 1e-03       (83.3 m%)
    dc: Vg = 966e-03     (80.5 %), step = 1e-03       (83.3 m%)
    dc: Vg = 967e-03     (80.6 %), step = 1e-03       (83.3 m%)
    dc: Vg = 968e-03     (80.7 %), step = 1e-03       (83.3 m%)
    dc: Vg = 969e-03     (80.8 %), step = 1e-03       (83.3 m%)
    dc: Vg = 970e-03     (80.8 %), step = 1e-03       (83.3 m%)
    dc: Vg = 971e-03     (80.9 %), step = 1e-03       (83.3 m%)
    dc: Vg = 972e-03       (81 %), step = 1e-03       (83.3 m%)
    dc: Vg = 973e-03     (81.1 %), step = 1e-03       (83.3 m%)
    dc: Vg = 974e-03     (81.2 %), step = 1e-03       (83.3 m%)
    dc: Vg = 975e-03     (81.2 %), step = 1e-03       (83.3 m%)
    dc: Vg = 976e-03     (81.3 %), step = 1e-03       (83.3 m%)
    dc: Vg = 977e-03     (81.4 %), step = 1e-03       (83.3 m%)
    dc: Vg = 978e-03     (81.5 %), step = 1e-03       (83.3 m%)
    dc: Vg = 979e-03     (81.6 %), step = 1e-03       (83.3 m%)
    dc: Vg = 980e-03     (81.7 %), step = 1e-03       (83.3 m%)
    dc: Vg = 981e-03     (81.8 %), step = 1e-03       (83.3 m%)
    dc: Vg = 982e-03     (81.8 %), step = 1e-03       (83.3 m%)
    dc: Vg = 983e-03     (81.9 %), step = 1e-03       (83.3 m%)
    dc: Vg = 984e-03       (82 %), step = 1e-03       (83.3 m%)
    dc: Vg = 985e-03     (82.1 %), step = 1e-03       (83.3 m%)
    dc: Vg = 986e-03     (82.2 %), step = 1e-03       (83.3 m%)
    dc: Vg = 987e-03     (82.2 %), step = 1e-03       (83.3 m%)
    dc: Vg = 988e-03     (82.3 %), step = 1e-03       (83.3 m%)
    dc: Vg = 989e-03     (82.4 %), step = 1e-03       (83.3 m%)
    dc: Vg = 990e-03     (82.5 %), step = 1e-03       (83.3 m%)
    dc: Vg = 991e-03     (82.6 %), step = 1e-03       (83.3 m%)
    dc: Vg = 992e-03     (82.7 %), step = 1e-03       (83.3 m%)
    dc: Vg = 993e-03     (82.8 %), step = 1e-03       (83.3 m%)
    dc: Vg = 994e-03     (82.8 %), step = 1e-03       (83.3 m%)
    dc: Vg = 995e-03     (82.9 %), step = 1e-03       (83.3 m%)
    dc: Vg = 996e-03       (83 %), step = 1e-03       (83.3 m%)
    dc: Vg = 997e-03     (83.1 %), step = 1e-03       (83.3 m%)
    dc: Vg = 998e-03     (83.2 %), step = 1e-03       (83.3 m%)
    dc: Vg = 999e-03     (83.2 %), step = 1e-03       (83.3 m%)
    dc: Vg = 1           (83.3 %), step = 1e-03       (83.3 m%)
    dc: Vg = 1.001       (83.4 %), step = 1e-03       (83.3 m%)
    dc: Vg = 1.002       (83.5 %), step = 1e-03       (83.3 m%)
    dc: Vg = 1.003       (83.6 %), step = 1e-03       (83.3 m%)
    dc: Vg = 1.004       (83.7 %), step = 1e-03       (83.3 m%)
    dc: Vg = 1.005       (83.8 %), step = 1e-03       (83.3 m%)
    dc: Vg = 1.006       (83.8 %), step = 1e-03       (83.3 m%)
    dc: Vg = 1.007       (83.9 %), step = 1e-03       (83.3 m%)
    dc: Vg = 1.008         (84 %), step = 1e-03       (83.3 m%)
    dc: Vg = 1.009       (84.1 %), step = 1e-03       (83.3 m%)
    dc: Vg = 1.01        (84.2 %), step = 1e-03       (83.3 m%)
    dc: Vg = 1.011       (84.2 %), step = 1e-03       (83.3 m%)
    dc: Vg = 1.012       (84.3 %), step = 1e-03       (83.3 m%)
    dc: Vg = 1.013       (84.4 %), step = 1e-03       (83.3 m%)
    dc: Vg = 1.014       (84.5 %), step = 1e-03       (83.3 m%)
    dc: Vg = 1.015       (84.6 %), step = 1e-03       (83.3 m%)
    dc: Vg = 1.016       (84.7 %), step = 1e-03       (83.3 m%)
    dc: Vg = 1.017       (84.8 %), step = 1e-03       (83.3 m%)
    dc: Vg = 1.018       (84.8 %), step = 1e-03       (83.3 m%)
    dc: Vg = 1.019       (84.9 %), step = 1e-03       (83.3 m%)
    dc: Vg = 1.02          (85 %), step = 1e-03       (83.3 m%)
    dc: Vg = 1.021       (85.1 %), step = 1e-03       (83.3 m%)
    dc: Vg = 1.022       (85.2 %), step = 1e-03       (83.3 m%)
    dc: Vg = 1.023       (85.2 %), step = 1e-03       (83.3 m%)
    dc: Vg = 1.024       (85.3 %), step = 1e-03       (83.3 m%)
    dc: Vg = 1.025       (85.4 %), step = 1e-03       (83.3 m%)
    dc: Vg = 1.026       (85.5 %), step = 1e-03       (83.3 m%)
    dc: Vg = 1.027       (85.6 %), step = 1e-03       (83.3 m%)
    dc: Vg = 1.028       (85.7 %), step = 1e-03       (83.3 m%)
    dc: Vg = 1.029       (85.8 %), step = 1e-03       (83.3 m%)
    dc: Vg = 1.03        (85.8 %), step = 1e-03       (83.3 m%)
    dc: Vg = 1.031       (85.9 %), step = 1e-03       (83.3 m%)
    dc: Vg = 1.032         (86 %), step = 1e-03       (83.3 m%)
    dc: Vg = 1.033       (86.1 %), step = 1e-03       (83.3 m%)
    dc: Vg = 1.034       (86.2 %), step = 1e-03       (83.3 m%)
    dc: Vg = 1.035       (86.2 %), step = 1e-03       (83.3 m%)
    dc: Vg = 1.036       (86.3 %), step = 1e-03       (83.3 m%)
    dc: Vg = 1.037       (86.4 %), step = 1e-03       (83.3 m%)
    dc: Vg = 1.038       (86.5 %), step = 1e-03       (83.3 m%)
    dc: Vg = 1.039       (86.6 %), step = 1e-03       (83.3 m%)
    dc: Vg = 1.04        (86.7 %), step = 1e-03       (83.3 m%)
    dc: Vg = 1.041       (86.8 %), step = 1e-03       (83.3 m%)
    dc: Vg = 1.042       (86.8 %), step = 1e-03       (83.3 m%)
    dc: Vg = 1.043       (86.9 %), step = 1e-03       (83.3 m%)
    dc: Vg = 1.044         (87 %), step = 1e-03       (83.3 m%)
    dc: Vg = 1.045       (87.1 %), step = 1e-03       (83.3 m%)
    dc: Vg = 1.046       (87.2 %), step = 1e-03       (83.3 m%)
    dc: Vg = 1.047       (87.2 %), step = 1e-03       (83.3 m%)
    dc: Vg = 1.048       (87.3 %), step = 1e-03       (83.3 m%)
    dc: Vg = 1.049       (87.4 %), step = 1e-03       (83.3 m%)
    dc: Vg = 1.05        (87.5 %), step = 1e-03       (83.3 m%)
    dc: Vg = 1.051       (87.6 %), step = 1e-03       (83.3 m%)
    dc: Vg = 1.052       (87.7 %), step = 1e-03       (83.3 m%)
    dc: Vg = 1.053       (87.8 %), step = 1e-03       (83.3 m%)
    dc: Vg = 1.054       (87.8 %), step = 1e-03       (83.3 m%)
    dc: Vg = 1.055       (87.9 %), step = 1e-03       (83.3 m%)
    dc: Vg = 1.056         (88 %), step = 1e-03       (83.3 m%)
    dc: Vg = 1.057       (88.1 %), step = 1e-03       (83.3 m%)
    dc: Vg = 1.058       (88.2 %), step = 1e-03       (83.3 m%)
    dc: Vg = 1.059       (88.2 %), step = 1e-03       (83.3 m%)
    dc: Vg = 1.06        (88.3 %), step = 1e-03       (83.3 m%)
    dc: Vg = 1.061       (88.4 %), step = 1e-03       (83.3 m%)
    dc: Vg = 1.062       (88.5 %), step = 1e-03       (83.3 m%)
    dc: Vg = 1.063       (88.6 %), step = 1e-03       (83.3 m%)
    dc: Vg = 1.064       (88.7 %), step = 1e-03       (83.3 m%)
    dc: Vg = 1.065       (88.8 %), step = 1e-03       (83.3 m%)
    dc: Vg = 1.066       (88.8 %), step = 1e-03       (83.3 m%)
    dc: Vg = 1.067       (88.9 %), step = 1e-03       (83.3 m%)
    dc: Vg = 1.068         (89 %), step = 1e-03       (83.3 m%)
    dc: Vg = 1.069       (89.1 %), step = 1e-03       (83.3 m%)
    dc: Vg = 1.07        (89.2 %), step = 1e-03       (83.3 m%)
    dc: Vg = 1.071       (89.2 %), step = 1e-03       (83.3 m%)
    dc: Vg = 1.072       (89.3 %), step = 1e-03       (83.3 m%)
    dc: Vg = 1.073       (89.4 %), step = 1e-03       (83.3 m%)
    dc: Vg = 1.074       (89.5 %), step = 1e-03       (83.3 m%)
    dc: Vg = 1.075       (89.6 %), step = 1e-03       (83.3 m%)
    dc: Vg = 1.076       (89.7 %), step = 1e-03       (83.3 m%)
    dc: Vg = 1.077       (89.8 %), step = 1e-03       (83.3 m%)
    dc: Vg = 1.078       (89.8 %), step = 1e-03       (83.3 m%)
    dc: Vg = 1.079       (89.9 %), step = 1e-03       (83.3 m%)
    dc: Vg = 1.08          (90 %), step = 1e-03       (83.3 m%)
    dc: Vg = 1.081       (90.1 %), step = 1e-03       (83.3 m%)
    dc: Vg = 1.082       (90.2 %), step = 1e-03       (83.3 m%)
    dc: Vg = 1.083       (90.2 %), step = 1e-03       (83.3 m%)
    dc: Vg = 1.084       (90.3 %), step = 1e-03       (83.3 m%)
    dc: Vg = 1.085       (90.4 %), step = 1e-03       (83.3 m%)
    dc: Vg = 1.086       (90.5 %), step = 1e-03       (83.3 m%)
    dc: Vg = 1.087       (90.6 %), step = 1e-03       (83.3 m%)
    dc: Vg = 1.088       (90.7 %), step = 1e-03       (83.3 m%)
    dc: Vg = 1.089       (90.8 %), step = 1e-03       (83.3 m%)
    dc: Vg = 1.09        (90.8 %), step = 1e-03       (83.3 m%)
    dc: Vg = 1.091       (90.9 %), step = 1e-03       (83.3 m%)
    dc: Vg = 1.092         (91 %), step = 1e-03       (83.3 m%)
    dc: Vg = 1.093       (91.1 %), step = 1e-03       (83.3 m%)
    dc: Vg = 1.094       (91.2 %), step = 1e-03       (83.3 m%)
    dc: Vg = 1.095       (91.2 %), step = 1e-03       (83.3 m%)
    dc: Vg = 1.096       (91.3 %), step = 1e-03       (83.3 m%)
    dc: Vg = 1.097       (91.4 %), step = 1e-03       (83.3 m%)
    dc: Vg = 1.098       (91.5 %), step = 1e-03       (83.3 m%)
    dc: Vg = 1.099       (91.6 %), step = 1e-03       (83.3 m%)
    dc: Vg = 1.1         (91.7 %), step = 1e-03       (83.3 m%)
    dc: Vg = 1.101       (91.8 %), step = 1e-03       (83.3 m%)
    dc: Vg = 1.102       (91.8 %), step = 1e-03       (83.3 m%)
    dc: Vg = 1.103       (91.9 %), step = 1e-03       (83.3 m%)
    dc: Vg = 1.104         (92 %), step = 1e-03       (83.3 m%)
    dc: Vg = 1.105       (92.1 %), step = 1e-03       (83.3 m%)
    dc: Vg = 1.106       (92.2 %), step = 1e-03       (83.3 m%)
    dc: Vg = 1.107       (92.2 %), step = 1e-03       (83.3 m%)
    dc: Vg = 1.108       (92.3 %), step = 1e-03       (83.3 m%)
    dc: Vg = 1.109       (92.4 %), step = 1e-03       (83.3 m%)
    dc: Vg = 1.11        (92.5 %), step = 1e-03       (83.3 m%)
    dc: Vg = 1.111       (92.6 %), step = 1e-03       (83.3 m%)
    dc: Vg = 1.112       (92.7 %), step = 1e-03       (83.3 m%)
    dc: Vg = 1.113       (92.8 %), step = 1e-03       (83.3 m%)
    dc: Vg = 1.114       (92.8 %), step = 1e-03       (83.3 m%)
    dc: Vg = 1.115       (92.9 %), step = 1e-03       (83.3 m%)
    dc: Vg = 1.116         (93 %), step = 1e-03       (83.3 m%)
    dc: Vg = 1.117       (93.1 %), step = 1e-03       (83.3 m%)
    dc: Vg = 1.118       (93.2 %), step = 1e-03       (83.3 m%)
    dc: Vg = 1.119       (93.2 %), step = 1e-03       (83.3 m%)
    dc: Vg = 1.12        (93.3 %), step = 1e-03       (83.3 m%)
    dc: Vg = 1.121       (93.4 %), step = 1e-03       (83.3 m%)
    dc: Vg = 1.122       (93.5 %), step = 1e-03       (83.3 m%)
    dc: Vg = 1.123       (93.6 %), step = 1e-03       (83.3 m%)
    dc: Vg = 1.124       (93.7 %), step = 1e-03       (83.3 m%)
    dc: Vg = 1.125       (93.8 %), step = 1e-03       (83.3 m%)
    dc: Vg = 1.126       (93.8 %), step = 1e-03       (83.3 m%)
    dc: Vg = 1.127       (93.9 %), step = 1e-03       (83.3 m%)
    dc: Vg = 1.128         (94 %), step = 1e-03       (83.3 m%)
    dc: Vg = 1.129       (94.1 %), step = 1e-03       (83.3 m%)
    dc: Vg = 1.13        (94.2 %), step = 1e-03       (83.3 m%)
    dc: Vg = 1.131       (94.2 %), step = 1e-03       (83.3 m%)
    dc: Vg = 1.132       (94.3 %), step = 1e-03       (83.3 m%)
    dc: Vg = 1.133       (94.4 %), step = 1e-03       (83.3 m%)
    dc: Vg = 1.134       (94.5 %), step = 1e-03       (83.3 m%)
    dc: Vg = 1.135       (94.6 %), step = 1e-03       (83.3 m%)
    dc: Vg = 1.136       (94.7 %), step = 1e-03       (83.3 m%)
    dc: Vg = 1.137       (94.8 %), step = 1e-03       (83.3 m%)
    dc: Vg = 1.138       (94.8 %), step = 1e-03       (83.3 m%)
    dc: Vg = 1.139       (94.9 %), step = 1e-03       (83.3 m%)
    dc: Vg = 1.14          (95 %), step = 1e-03       (83.3 m%)
    dc: Vg = 1.141       (95.1 %), step = 1e-03       (83.3 m%)
    dc: Vg = 1.142       (95.2 %), step = 1e-03       (83.3 m%)
    dc: Vg = 1.143       (95.2 %), step = 1e-03       (83.3 m%)
    dc: Vg = 1.144       (95.3 %), step = 1e-03       (83.3 m%)
    dc: Vg = 1.145       (95.4 %), step = 1e-03       (83.3 m%)
    dc: Vg = 1.146       (95.5 %), step = 1e-03       (83.3 m%)
    dc: Vg = 1.147       (95.6 %), step = 1e-03       (83.3 m%)
    dc: Vg = 1.148       (95.7 %), step = 1e-03       (83.3 m%)
    dc: Vg = 1.149       (95.8 %), step = 1e-03       (83.3 m%)
    dc: Vg = 1.15        (95.8 %), step = 1e-03       (83.3 m%)
    dc: Vg = 1.151       (95.9 %), step = 1e-03       (83.3 m%)
    dc: Vg = 1.152         (96 %), step = 1e-03       (83.3 m%)
    dc: Vg = 1.153       (96.1 %), step = 1e-03       (83.3 m%)
    dc: Vg = 1.154       (96.2 %), step = 1e-03       (83.3 m%)
    dc: Vg = 1.155       (96.2 %), step = 1e-03       (83.3 m%)
    dc: Vg = 1.156       (96.3 %), step = 1e-03       (83.3 m%)
    dc: Vg = 1.157       (96.4 %), step = 1e-03       (83.3 m%)
    dc: Vg = 1.158       (96.5 %), step = 1e-03       (83.3 m%)
    dc: Vg = 1.159       (96.6 %), step = 1e-03       (83.3 m%)
    dc: Vg = 1.16        (96.7 %), step = 1e-03       (83.3 m%)
    dc: Vg = 1.161       (96.8 %), step = 1e-03       (83.3 m%)
    dc: Vg = 1.162       (96.8 %), step = 1e-03       (83.3 m%)
    dc: Vg = 1.163       (96.9 %), step = 1e-03       (83.3 m%)
    dc: Vg = 1.164         (97 %), step = 1e-03       (83.3 m%)
    dc: Vg = 1.165       (97.1 %), step = 1e-03       (83.3 m%)
    dc: Vg = 1.166       (97.2 %), step = 1e-03       (83.3 m%)
    dc: Vg = 1.167       (97.2 %), step = 1e-03       (83.3 m%)
    dc: Vg = 1.168       (97.3 %), step = 1e-03       (83.3 m%)
    dc: Vg = 1.169       (97.4 %), step = 1e-03       (83.3 m%)
    dc: Vg = 1.17        (97.5 %), step = 1e-03       (83.3 m%)
    dc: Vg = 1.171       (97.6 %), step = 1e-03       (83.3 m%)
    dc: Vg = 1.172       (97.7 %), step = 1e-03       (83.3 m%)
    dc: Vg = 1.173       (97.8 %), step = 1e-03       (83.3 m%)
    dc: Vg = 1.174       (97.8 %), step = 1e-03       (83.3 m%)
    dc: Vg = 1.175       (97.9 %), step = 1e-03       (83.3 m%)
    dc: Vg = 1.176         (98 %), step = 1e-03       (83.3 m%)
    dc: Vg = 1.177       (98.1 %), step = 1e-03       (83.3 m%)
    dc: Vg = 1.178       (98.2 %), step = 1e-03       (83.3 m%)
    dc: Vg = 1.179       (98.2 %), step = 1e-03       (83.3 m%)
    dc: Vg = 1.18        (98.3 %), step = 1e-03       (83.3 m%)
    dc: Vg = 1.181       (98.4 %), step = 1e-03       (83.3 m%)
    dc: Vg = 1.182       (98.5 %), step = 1e-03       (83.3 m%)
    dc: Vg = 1.183       (98.6 %), step = 1e-03       (83.3 m%)
    dc: Vg = 1.184       (98.7 %), step = 1e-03       (83.3 m%)
    dc: Vg = 1.185       (98.8 %), step = 1e-03       (83.3 m%)
    dc: Vg = 1.186       (98.8 %), step = 1e-03       (83.3 m%)
    dc: Vg = 1.187       (98.9 %), step = 1e-03       (83.3 m%)
    dc: Vg = 1.188         (99 %), step = 1e-03       (83.3 m%)
    dc: Vg = 1.189       (99.1 %), step = 1e-03       (83.3 m%)
    dc: Vg = 1.19        (99.2 %), step = 1e-03       (83.3 m%)
    dc: Vg = 1.191       (99.2 %), step = 1e-03       (83.3 m%)
    dc: Vg = 1.192       (99.3 %), step = 1e-03       (83.3 m%)
    dc: Vg = 1.193       (99.4 %), step = 1e-03       (83.3 m%)
    dc: Vg = 1.194       (99.5 %), step = 1e-03       (83.3 m%)
    dc: Vg = 1.195       (99.6 %), step = 1e-03       (83.3 m%)
    dc: Vg = 1.196       (99.7 %), step = 1e-03       (83.3 m%)
    dc: Vg = 1.197       (99.8 %), step = 1e-03       (83.3 m%)
    dc: Vg = 1.198       (99.8 %), step = 1e-03       (83.3 m%)
    dc: Vg = 1.199       (99.9 %), step = 1e-03       (83.3 m%)
    dc: Vg = 1.2          (100 %), step = 1e-03       (83.3 m%)

Maximum value achieved for any signal of each quantity: 
V: V(net4) = 1.2 V
I: I(V0:p) = 129.1 uA
DC simulation time: CPU = 91.339 ms, elapsed = 104.729 ms.

Notice from spectre at Vg = 1.2 during DC analysis `dc'.
    The value of parameter 'Vg' has been reset to the original value 0.6.

Total time required for dc analysis `dc': CPU = 91.35 ms, elapsed = 104.74 ms, util. = 87.2%.
Time accumulated: CPU = 245.925 ms, elapsed = 627.458 ms.
Peak resident memory used = 208 Mbytes.

modelParameter: writing model parameter values to rawfile.

Opening the PSF file ../psf/modelParameter.info ...
element: writing instance parameter values to rawfile.

Opening the PSF file ../psf/element.info ...
outputParameter: writing output parameter values to rawfile.

Opening the PSF file ../psf/outputParameter.info ...
designParamVals: writing netlist parameters to rawfile.

Opening the PSFASCII file ../psf/designParamVals.info ...
primitives: writing primitives to rawfile.

Opening the PSFASCII file ../psf/primitives.info.primitives ...
subckts: writing subcircuits to rawfile.

Opening the PSFASCII file ../psf/subckts.info.subckts ...
Licensing Information:
Lic Summary:
[17:28:24.292056] Cdslmd servers:30000@cadence.cnfm.fr
[17:28:24.816354] Feature usage summary:
[17:28:24.816355] Virtuoso_Multi_mode_Simulation


Aggregate audit (5:28:24 PM, Thur Apr 9, 2026):
Time used: CPU = 252 ms, elapsed = 654 ms, util. = 38.5%.
Time spent in licensing: elapsed = 452 ms, percentage of total = 69.2%.
Peak memory used = 209 Mbytes.
Simulation started at: 5:28:24 PM, Thur Apr 9, 2026, ended at: 5:28:24 PM, Thur Apr 9, 2026, with elapsed time (wall clock): 654 ms.
spectre completes with 0 errors, 0 warnings, and 6 notices.
