
Spectre (R) Circuit Simulator
Version 24.1.0.198.isr3 64bit -- 6 Jan 2025
Copyright (C) 1989-2024 Cadence Design Systems, Inc. All rights reserved worldwide. Cadence and Spectre are registered trademarks of Cadence Design Systems, Inc. All others are the property of their respective holders.

Includes RSA BSAFE(R) Cryptographic or Security Protocol Software from RSA Security, Inc.

User: carbou   Host: brahms   HostID: E3843D43   PID: 267477
Memory  available: 26.1276 GB  physical: 33.1539 GB
Linux   : AlmaLinux release 9.7 (Moss Jungle Cat)
CPU Type: Intel(R) Core(TM) i5-9500 CPU @ 3.00GHz
All processors running at 4199.9 MHz
        Socket: Processors
        0:       0,  1,  2,  3,  4,  5
        
System load averages (1min, 5min, 15min) : 20.8 %, 17.3 %, 14.5 %
HPC is enabled


Simulating `input.scs' on brahms at 4:40:43 PM, Thur May 7, 2026 (process id: 267477).
Current working directory: /users/enseig/carbou/Documents/S2/EACN/Projet/cadence_ihp_sg13g2/cds/sim/cours_EACN_SESI/bandgap/maestro/results/maestro/ExplorerRun.0/1/cours_EACN_SESI_bandgap_1/netlist
Command line:
    /users/soft/opus/Linux/SPECTRE-24.10.03.198/tools/bin/spectre -64  \
        input.scs +escchars +log ../psf/spectre.out -format psfxl -raw  \
        ../psf  \
        -I/users/soft/techno/dev/IHP/sg13/SG13G2_618_rev1.3.3/lib/TL_SG13/RLCG/spectre/  \
        +aps +mt +lqtimeout 900 -maxw 5 -maxn 5 -env ade  \
        +adespetkn=0001089D13A302B663E41FB550AF0DF415A679A322D5069144BF588C12F604E07EF416DC01A319B562BB63D301DF479645A338F059F145A903F44DD75BDD4F9267EA79D15D9175FF349864C67B9974D35BED75CA7A8A74D359EB43E118F874D30EA879D118F874D3349879D118F874D33498102DBC92D0B95D6400003691  \
        +mts -ahdllibdir  \
        /users/enseig/carbou/Documents/S2/EACN/Projet/cadence_ihp_sg13g2/cds/sim/cours_EACN_SESI/bandgap/maestro/results/maestro/ExplorerRun.0/sharedData/lscsJob17/ahdl/input.ahdlSimDB  \
        +logstatus

Simulation Id: 3EpsvM7l1zxdgtSr
Licensing Information:
[16:40:43.291217] Configured Lic search path (24.01-s002): 30000@cadence.cnfm.fr

Licensing Information:
[16:40:45.090640] Periodic Lic check successful

Loading /users/soft/opus/Linux/SPECTRE-24.10.03.198/tools.lnx86/cmi/lib/64bit/5.0/libinfineon_sh.so ...
Loading /users/soft/opus/Linux/SPECTRE-24.10.03.198/tools.lnx86/cmi/lib/64bit/5.0/libphilips_I_sh.so ...
Loading /users/soft/opus/Linux/SPECTRE-24.10.03.198/tools.lnx86/cmi/lib/64bit/5.0/libphilips_sh.so ...
Loading /users/soft/opus/Linux/SPECTRE-24.10.03.198/tools.lnx86/cmi/lib/64bit/5.0/libsparam_sh.so ...
Loading /users/soft/opus/Linux/SPECTRE-24.10.03.198/tools.lnx86/cmi/lib/64bit/5.0/libstmodels_sh.so ...
Reading file:  /users/enseig/carbou/Documents/S2/EACN/Projet/cadence_ihp_sg13g2/cds/sim/cours_EACN_SESI/bandgap/maestro/results/maestro/ExplorerRun.0/1/cours_EACN_SESI_bandgap_1/netlist/input.scs
Reading file:  /users/soft/opus/Linux/SPECTRE-24.10.03.198/tools.lnx86/spectre/etc/configs/spectre.cfg
Reading file:  /users/enseig/carbou/Documents/S2/EACN/Projet/cadence_ihp_sg13g2/cds/sim/cours_EACN_SESI/bandgap/maestro/results/maestro/ExplorerRun.0/1/cours_EACN_SESI_bandgap_1/netlist/ade_e.scs
Reading file:  /users/soft/techno/dev/IHP/sg13/SG13G2_618_rev1.3.3/tech/SG13G2_HBT/VBIC/spectre/SG13G2_cornerBIP_vbic.scs
Reading file:  /users/soft/techno/dev/IHP/sg13/SG13G2_618_rev1.3.3/tech/SG13G2_HBT/VBIC/spectre/SG13G2_hbt_vbic.lib
Reading file:  /users/soft/techno/dev/IHP/sg13/SG13G2_618_rev1.3.3/tech/SG13G2_HBT/VBIC/spectre/SG13G2_hbt_stat.scs
Reading file:  /users/soft/techno/dev/IHP/sg13/SG13G2_618_rev1.3.3/tech/SG13G2_HBT/VBIC/spectre/SG13G2_hbt_mm.scs
Reading file:  /users/soft/techno/dev/IHP/sg13/SG13G2_618_rev1.3.3/tech/SG13_MOS/library/spectreG2/cornerMOSlv_psp.scs
Reading file:  /users/soft/techno/dev/IHP/sg13/SG13G2_618_rev1.3.3/tech/SG13_MOS/library/spectreG2/sg13g2_moslv_psp_stat.scs
Reading file:  /users/soft/techno/dev/IHP/sg13/SG13G2_618_rev1.3.3/tech/SG13_MOS/library/spectreG2/sg13g2_moslv_psp_mod.lib
Reading file:  /users/soft/techno/dev/IHP/sg13/SG13G2_618_rev1.3.3/tech/SG13_MOS/library/spectreG2/sg13g2_moslv_psp_parm.scs
Reading file:  /users/soft/techno/dev/IHP/sg13/SG13G2_618_rev1.3.3/tech/SG13_MOS/library/spectreG2/cornerMOShv_psp.scs
Reading file:  /users/soft/techno/dev/IHP/sg13/SG13G2_618_rev1.3.3/tech/SG13_MOS/library/spectreG2/sg13g2_moshv_psp_stat.scs
Reading file:  /users/soft/techno/dev/IHP/sg13/SG13G2_618_rev1.3.3/tech/SG13_MOS/library/spectreG2/sg13g2_moshv_psp_mod.lib
Reading file:  /users/soft/techno/dev/IHP/sg13/SG13G2_618_rev1.3.3/tech/SG13_MOS/library/spectreG2/sg13g2_moshv_psp_parm.scs
Reading file:  /users/soft/techno/dev/IHP/sg13/SG13G2_618_rev1.3.3/tech/SG13_MOS/library/spectreG2/sg13g2_svaricaphv_mosvar_mod.lib
Reading file:  /users/soft/techno/dev/IHP/sg13/SG13G2_618_rev1.3.3/tech/SG13G2_PASSIVES/spectre/SG13_cornerRES.scs
Reading file:  /users/soft/techno/dev/IHP/sg13/SG13G2_618_rev1.3.3/tech/SG13G2_PASSIVES/spectre/SG13_res_mm.scs
Reading file:  /users/soft/techno/dev/IHP/sg13/SG13G2_618_rev1.3.3/tech/SG13G2_PASSIVES/spectre/SG13_res_stat.scs
Reading file:  /users/soft/techno/dev/IHP/sg13/SG13G2_618_rev1.3.3/tech/SG13G2_PASSIVES/spectre/SG13_res.lib
Reading file:  /users/soft/techno/dev/IHP/sg13/SG13G2_618_rev1.3.3/tech/SG13G2_PASSIVES/spectre/SG13_cornerCAP.scs
Reading file:  /users/soft/techno/dev/IHP/sg13/SG13G2_618_rev1.3.3/tech/SG13G2_PASSIVES/spectre/SG13_cap_mm.scs
Reading file:  /users/soft/techno/dev/IHP/sg13/SG13G2_618_rev1.3.3/tech/SG13G2_PASSIVES/spectre/SG13_cap_stat.scs
Reading file:  /users/soft/techno/dev/IHP/sg13/SG13G2_618_rev1.3.3/tech/SG13G2_PASSIVES/spectre/SG13_cap.lib
Reading file:  /users/soft/techno/dev/IHP/sg13/SG13G2_618_rev1.3.3/tech/SG13G2_PASSIVES/spectre/sg13g2_dschottky_nbl1_corner.scs
Reading file:  /users/soft/techno/dev/IHP/sg13/SG13G2_618_rev1.3.3/tech/SG13G2_PASSIVES/spectre/sg13g2_dschottky_nbl1_stat.scs
Reading file:  /users/soft/techno/dev/IHP/sg13/SG13G2_618_rev1.3.3/tech/SG13G2_PASSIVES/spectre/sg13g2_dschottky_nbl1_mod.lib
Reading file:  /users/soft/techno/dev/IHP/sg13/SG13G2_618_rev1.3.3/tech/SG13G2_PASSIVES/spectre/SG13_diodes.lib
Reading file:  /users/soft/techno/dev/IHP/sg13/SG13G2_618_rev1.3.3/tech/SG13_ESD/spectre/SG13_esd.lib
Reading file:  /users/soft/techno/dev/IHP/sg13/SG13G2_618_rev1.3.3/tech/SG13_PASSIVES/spectre/SG13_cornerTSV.scs
Reading file:  /users/soft/techno/dev/IHP/sg13/SG13G2_618_rev1.3.3/tech/SG13_PASSIVES/spectre/SG13_paramsTSV.scs
Reading file:  /users/soft/techno/dev/IHP/sg13/SG13G2_618_rev1.3.3/tech/SG13_PASSIVES/spectre/SG13_tsv.lib
Reading file:  /users/soft/techno/dev/IHP/sg13/SG13G2_618_rev1.3.3/tech/SG13_PASSIVES/spectre/SG13_bondpad.lib

Notice from spectre in `bondpad_model', during circuit read-in.
    "/users/soft/techno/dev/IHP/sg13/SG13G2_618_rev1.3.3/tech/SG13_PASSIVES/spectre/SG13_bondpad.lib" 13: Subcircuit 'bondpad_model' is empty.

Reading file:  /users/enseig/galayko/cours_EACN/projet/cadence_ihp_sg13g2/cds/allFunc.scs
Reading link:  /users/enseig/carbou/Documents/S2/EACN/Projet/cadence_ihp_sg13g2/cds/sim/cours_EACN_SESI/bandgap/maestro/results/maestro/ExplorerRun.0/1/cours_EACN_SESI_bandgap_1/netlist/netlist
Reading file:  /users/enseig/carbou/Documents/S2/EACN/Projet/cadence_ihp_sg13g2/cds/sim/cours_EACN_SESI/bandgap/maestro/results/maestro/ExplorerRun.0/psf/cours_EACN_SESI_bandgap_1/netlist/netlist
Time for NDB Parsing: CPU = 75.983 ms, elapsed = 1.53566 s.
Time accumulated: CPU = 214.352 ms, elapsed = 1.53566 s.
Peak resident memory used = 190 Mbytes.

Time for Elaboration: CPU = 13.282 ms, elapsed = 15.5401 ms.
Time accumulated: CPU = 227.716 ms, elapsed = 1.55128 s.
Peak resident memory used = 199 Mbytes.

 Start ADE Session ID: 3EpsvM7l1zxdgtSr


Warning from spectre during hierarchy flattening.
    WARNING (SPECTRE-8527): There are some nodes and instances removed from the netlist topology check. Check the circuit and correct the topology. Or use preserve_inst to keep them if necessary.

***********************************************
  Total removed instances 3 ( dangling 3, terminals connected together 0)  

Warning from spectre during hierarchy flattening.
    WARNING (SPECTRE-8529): Dangling instance. R4 is removed.
    WARNING (SPECTRE-8529): Dangling instance. D9_turbo_m4 is removed.
    WARNING (SPECTRE-8529): Dangling instance. D5 is removed.


  Total removed nodes 2 ( dangling nodes 2, floating nodes 0 )

Warning from spectre during hierarchy flattening.
    WARNING (SPECTRE-8530): Dangling node. net12 is removed.
    WARNING (SPECTRE-8530): Dangling node. net7 is removed.

***********************************************
Time for EDB Visiting: CPU = 726 us, elapsed = 1.45102 ms.
Time accumulated: CPU = 228.524 ms, elapsed = 1.55281 s.
Peak resident memory used = 200 Mbytes.


Notice from spectre during topology check.
    Only one connection to node `sub!'.
Notice from spectre during initial setup.
    Multithreading is disabled due to the size of the design being too small.


Netlist title:
        // Point Netlist Generated on: May  7 16:40:41 2026


Global user options:
         psfversion = 1.4.0
            vabstol = 1e-06
            iabstol = 1e-12
               temp = 27
               gmin = 1e-12
             rforce = 1
           maxnotes = 5
           maxwarns = 5
             digits = 5
               cols = 80
             pivrel = 0.001
           sensfile = ../psf/sens.output
     checklimitdest = sqldb
      ignorezerovar = yes
               save = allpub
           currents = all
     subcktprobelvl = 5
       saveahdlvars = all
             reltol = 0.001
               tnom = 27
             scalem = 1
              scale = 1

Scoped user options:

Circuit inventory:
              nodes 14
                bjt 10    
          pspnqs103 3     
           resistor 5     
               vcvs 1     
            vsource 6     

Analysis and control statement inventory:
                 dc 2     
               info 7     

Output statements:
             .probe 0     
           .measure 0     
               save 1     

Design checks inventory:
          paramtest 13    


Notice from spectre during initial setup.
    Protected devices exist and are not included in the circuit inventory.
    3 vsources are shorted because their absolute value is less than or equal to 'vabsshort'.
    APS enabled.

Time for parsing: CPU = 1.961 ms, elapsed = 7.26414 ms.
Time accumulated: CPU = 230.548 ms, elapsed = 1.5605 s.
Peak resident memory used = 204 Mbytes.

~~~~~~~~~~~~~~~~~~~~~~
Pre-Simulation Summary
~~~~~~~~~~~~~~~~~~~~~~
   -   (APS) Multi-threading. The recommended number of threads is 1, consider adding +mt=1 on command line.
~~~~~~~~~~~~~~~~~~~~~~

******************
DC Analysis `dcOp'
******************

Opening the PSF file ../psf/dcOp.dc ...
Important parameter values:
    reltol = 1e-03
    abstol(V) = 1 uV
    abstol(I) = 1 pA
    temp = 27 C
    tnom = 27 C
    tempeffects = all
    gmindc = 1 pS
    rabsshort = 1 mOhm

Maximum value achieved for any signal of each quantity: 
V: V(vdd!) = 1.2 V
I: I(V1:p) = 58.07 uA
Convergence achieved in 20 iterations.
DC simulation time: CPU = 2.665 ms, elapsed = 6.53982 ms.
Total time required for dc analysis `dcOp': CPU = 2.706 ms, elapsed = 6.58011 ms, util. = 41.1%.
Time accumulated: CPU = 241.673 ms, elapsed = 1.57631 s.
Peak resident memory used = 208 Mbytes.

dcOpInfo: writing operating point information to rawfile.

Opening the PSF file ../psf/dcOpInfo.info ...
 Start ADE Session ID: 3EpsvM7l1zxdgtSr

*****************************************
DC Analysis `dc': temp = (-50 C -> 100 C)
*****************************************

Opening the PSF file ../psf/dc.dc ...
Important parameter values:
    reltol = 1e-03
    abstol(V) = 1 uV
    abstol(I) = 1 pA
    temp = -50 C
    tnom = 27 C
    tempeffects = all
    gmindc = 1 pS
    rabsshort = 1 mOhm
 Start ADE Session ID: 3EpsvM7l1zxdgtSr
 Start ADE Session ID: 3EpsvM7l1zxdgtSr
 Start ADE Session ID: 3EpsvM7l1zxdgtSr
 Start ADE Session ID: 3EpsvM7l1zxdgtSr
    dc: temp = -46 C       (2.67 %), step = 1 C          (667 m%)
 Start ADE Session ID: 3EpsvM7l1zxdgtSr
    dc: temp = -45 C       (3.33 %), step = 1 C          (667 m%)
 Start ADE Session ID: 3EpsvM7l1zxdgtSr
    dc: temp = -44 C          (4 %), step = 1 C          (667 m%)
 Start ADE Session ID: 3EpsvM7l1zxdgtSr
    dc: temp = -43 C       (4.67 %), step = 1 C          (667 m%)
 Start ADE Session ID: 3EpsvM7l1zxdgtSr
    dc: temp = -42 C       (5.33 %), step = 1 C          (667 m%)
 Start ADE Session ID: 3EpsvM7l1zxdgtSr
    dc: temp = -41 C          (6 %), step = 1 C          (667 m%)
 Start ADE Session ID: 3EpsvM7l1zxdgtSr
    dc: temp = -40 C       (6.67 %), step = 1 C          (667 m%)
 Start ADE Session ID: 3EpsvM7l1zxdgtSr
    dc: temp = -39 C       (7.33 %), step = 1 C          (667 m%)
 Start ADE Session ID: 3EpsvM7l1zxdgtSr
    dc: temp = -38 C          (8 %), step = 1 C          (667 m%)
 Start ADE Session ID: 3EpsvM7l1zxdgtSr
    dc: temp = -37 C       (8.67 %), step = 1 C          (667 m%)
 Start ADE Session ID: 3EpsvM7l1zxdgtSr
    dc: temp = -36 C       (9.33 %), step = 1 C          (667 m%)
 Start ADE Session ID: 3EpsvM7l1zxdgtSr
    dc: temp = -35 C         (10 %), step = 1 C          (667 m%)
 Start ADE Session ID: 3EpsvM7l1zxdgtSr
    dc: temp = -34 C       (10.7 %), step = 1 C          (667 m%)
 Start ADE Session ID: 3EpsvM7l1zxdgtSr
    dc: temp = -33 C       (11.3 %), step = 1 C          (667 m%)
 Start ADE Session ID: 3EpsvM7l1zxdgtSr
    dc: temp = -32 C         (12 %), step = 1 C          (667 m%)
 Start ADE Session ID: 3EpsvM7l1zxdgtSr
    dc: temp = -31 C       (12.7 %), step = 1 C          (667 m%)
 Start ADE Session ID: 3EpsvM7l1zxdgtSr
    dc: temp = -30 C       (13.3 %), step = 1 C          (667 m%)
 Start ADE Session ID: 3EpsvM7l1zxdgtSr
    dc: temp = -29 C         (14 %), step = 1 C          (667 m%)
 Start ADE Session ID: 3EpsvM7l1zxdgtSr
    dc: temp = -28 C       (14.7 %), step = 1 C          (667 m%)
 Start ADE Session ID: 3EpsvM7l1zxdgtSr
    dc: temp = -27 C       (15.3 %), step = 1 C          (667 m%)
 Start ADE Session ID: 3EpsvM7l1zxdgtSr
    dc: temp = -26 C         (16 %), step = 1 C          (667 m%)
 Start ADE Session ID: 3EpsvM7l1zxdgtSr
    dc: temp = -25 C       (16.7 %), step = 1 C          (667 m%)
 Start ADE Session ID: 3EpsvM7l1zxdgtSr
    dc: temp = -24 C       (17.3 %), step = 1 C          (667 m%)
 Start ADE Session ID: 3EpsvM7l1zxdgtSr
    dc: temp = -23 C         (18 %), step = 1 C          (667 m%)
 Start ADE Session ID: 3EpsvM7l1zxdgtSr
    dc: temp = -22 C       (18.7 %), step = 1 C          (667 m%)
 Start ADE Session ID: 3EpsvM7l1zxdgtSr
    dc: temp = -21 C       (19.3 %), step = 1 C          (667 m%)
 Start ADE Session ID: 3EpsvM7l1zxdgtSr
    dc: temp = -20 C         (20 %), step = 1 C          (667 m%)
 Start ADE Session ID: 3EpsvM7l1zxdgtSr
    dc: temp = -19 C       (20.7 %), step = 1 C          (667 m%)
 Start ADE Session ID: 3EpsvM7l1zxdgtSr
    dc: temp = -18 C       (21.3 %), step = 1 C          (667 m%)
 Start ADE Session ID: 3EpsvM7l1zxdgtSr
    dc: temp = -17 C         (22 %), step = 1 C          (667 m%)
 Start ADE Session ID: 3EpsvM7l1zxdgtSr
    dc: temp = -16 C       (22.7 %), step = 1 C          (667 m%)
 Start ADE Session ID: 3EpsvM7l1zxdgtSr
    dc: temp = -15 C       (23.3 %), step = 1 C          (667 m%)
 Start ADE Session ID: 3EpsvM7l1zxdgtSr
    dc: temp = -14 C         (24 %), step = 1 C          (667 m%)
 Start ADE Session ID: 3EpsvM7l1zxdgtSr
    dc: temp = -13 C       (24.7 %), step = 1 C          (667 m%)
 Start ADE Session ID: 3EpsvM7l1zxdgtSr
    dc: temp = -12 C       (25.3 %), step = 1 C          (667 m%)
 Start ADE Session ID: 3EpsvM7l1zxdgtSr
    dc: temp = -11 C         (26 %), step = 1 C          (667 m%)
 Start ADE Session ID: 3EpsvM7l1zxdgtSr
    dc: temp = -10 C       (26.7 %), step = 1 C          (667 m%)
 Start ADE Session ID: 3EpsvM7l1zxdgtSr
    dc: temp = -9 C        (27.3 %), step = 1 C          (667 m%)
 Start ADE Session ID: 3EpsvM7l1zxdgtSr
    dc: temp = -8 C          (28 %), step = 1 C          (667 m%)
 Start ADE Session ID: 3EpsvM7l1zxdgtSr
    dc: temp = -7 C        (28.7 %), step = 1 C          (667 m%)
 Start ADE Session ID: 3EpsvM7l1zxdgtSr
    dc: temp = -6 C        (29.3 %), step = 1 C          (667 m%)
 Start ADE Session ID: 3EpsvM7l1zxdgtSr
    dc: temp = -5 C          (30 %), step = 1 C          (667 m%)
 Start ADE Session ID: 3EpsvM7l1zxdgtSr
    dc: temp = -4 C        (30.7 %), step = 1 C          (667 m%)
 Start ADE Session ID: 3EpsvM7l1zxdgtSr
    dc: temp = -3 C        (31.3 %), step = 1 C          (667 m%)
 Start ADE Session ID: 3EpsvM7l1zxdgtSr
    dc: temp = -2 C          (32 %), step = 1 C          (667 m%)
 Start ADE Session ID: 3EpsvM7l1zxdgtSr
    dc: temp = -1 C        (32.7 %), step = 1 C          (667 m%)
 Start ADE Session ID: 3EpsvM7l1zxdgtSr
    dc: temp = 0 C         (33.3 %), step = 1 C          (667 m%)
 Start ADE Session ID: 3EpsvM7l1zxdgtSr
    dc: temp = 1 C           (34 %), step = 1 C          (667 m%)
 Start ADE Session ID: 3EpsvM7l1zxdgtSr
    dc: temp = 2 C         (34.7 %), step = 1 C          (667 m%)
 Start ADE Session ID: 3EpsvM7l1zxdgtSr
    dc: temp = 3 C         (35.3 %), step = 1 C          (667 m%)
 Start ADE Session ID: 3EpsvM7l1zxdgtSr
    dc: temp = 4 C           (36 %), step = 1 C          (667 m%)
 Start ADE Session ID: 3EpsvM7l1zxdgtSr
    dc: temp = 5 C         (36.7 %), step = 1 C          (667 m%)
 Start ADE Session ID: 3EpsvM7l1zxdgtSr
    dc: temp = 6 C         (37.3 %), step = 1 C          (667 m%)
 Start ADE Session ID: 3EpsvM7l1zxdgtSr
    dc: temp = 7 C           (38 %), step = 1 C          (667 m%)
 Start ADE Session ID: 3EpsvM7l1zxdgtSr
    dc: temp = 8 C         (38.7 %), step = 1 C          (667 m%)
 Start ADE Session ID: 3EpsvM7l1zxdgtSr
    dc: temp = 9 C         (39.3 %), step = 1 C          (667 m%)
 Start ADE Session ID: 3EpsvM7l1zxdgtSr
    dc: temp = 10 C          (40 %), step = 1 C          (667 m%)
 Start ADE Session ID: 3EpsvM7l1zxdgtSr
    dc: temp = 11 C        (40.7 %), step = 1 C          (667 m%)
 Start ADE Session ID: 3EpsvM7l1zxdgtSr
    dc: temp = 12 C        (41.3 %), step = 1 C          (667 m%)
 Start ADE Session ID: 3EpsvM7l1zxdgtSr
    dc: temp = 13 C          (42 %), step = 1 C          (667 m%)
 Start ADE Session ID: 3EpsvM7l1zxdgtSr
    dc: temp = 14 C        (42.7 %), step = 1 C          (667 m%)
 Start ADE Session ID: 3EpsvM7l1zxdgtSr
    dc: temp = 15 C        (43.3 %), step = 1 C          (667 m%)
 Start ADE Session ID: 3EpsvM7l1zxdgtSr
    dc: temp = 16 C          (44 %), step = 1 C          (667 m%)
 Start ADE Session ID: 3EpsvM7l1zxdgtSr
    dc: temp = 17 C        (44.7 %), step = 1 C          (667 m%)
 Start ADE Session ID: 3EpsvM7l1zxdgtSr
    dc: temp = 18 C        (45.3 %), step = 1 C          (667 m%)
 Start ADE Session ID: 3EpsvM7l1zxdgtSr
    dc: temp = 19 C          (46 %), step = 1 C          (667 m%)
 Start ADE Session ID: 3EpsvM7l1zxdgtSr
    dc: temp = 20 C        (46.7 %), step = 1 C          (667 m%)
 Start ADE Session ID: 3EpsvM7l1zxdgtSr
    dc: temp = 21 C        (47.3 %), step = 1 C          (667 m%)
 Start ADE Session ID: 3EpsvM7l1zxdgtSr
    dc: temp = 22 C          (48 %), step = 1 C          (667 m%)
 Start ADE Session ID: 3EpsvM7l1zxdgtSr
    dc: temp = 23 C        (48.7 %), step = 1 C          (667 m%)
 Start ADE Session ID: 3EpsvM7l1zxdgtSr
    dc: temp = 24 C        (49.3 %), step = 1 C          (667 m%)
 Start ADE Session ID: 3EpsvM7l1zxdgtSr
    dc: temp = 25 C          (50 %), step = 1 C          (667 m%)
 Start ADE Session ID: 3EpsvM7l1zxdgtSr
    dc: temp = 26 C        (50.7 %), step = 1 C          (667 m%)
 Start ADE Session ID: 3EpsvM7l1zxdgtSr
    dc: temp = 27 C        (51.3 %), step = 1 C          (667 m%)
 Start ADE Session ID: 3EpsvM7l1zxdgtSr
    dc: temp = 28 C          (52 %), step = 1 C          (667 m%)
 Start ADE Session ID: 3EpsvM7l1zxdgtSr
    dc: temp = 29 C        (52.7 %), step = 1 C          (667 m%)
 Start ADE Session ID: 3EpsvM7l1zxdgtSr
    dc: temp = 30 C        (53.3 %), step = 1 C          (667 m%)
 Start ADE Session ID: 3EpsvM7l1zxdgtSr
    dc: temp = 31 C          (54 %), step = 1 C          (667 m%)
 Start ADE Session ID: 3EpsvM7l1zxdgtSr
    dc: temp = 32 C        (54.7 %), step = 1 C          (667 m%)
 Start ADE Session ID: 3EpsvM7l1zxdgtSr
    dc: temp = 33 C        (55.3 %), step = 1 C          (667 m%)
 Start ADE Session ID: 3EpsvM7l1zxdgtSr
    dc: temp = 34 C          (56 %), step = 1 C          (667 m%)
 Start ADE Session ID: 3EpsvM7l1zxdgtSr
    dc: temp = 35 C        (56.7 %), step = 1 C          (667 m%)
 Start ADE Session ID: 3EpsvM7l1zxdgtSr
    dc: temp = 36 C        (57.3 %), step = 1 C          (667 m%)
 Start ADE Session ID: 3EpsvM7l1zxdgtSr
    dc: temp = 37 C          (58 %), step = 1 C          (667 m%)
 Start ADE Session ID: 3EpsvM7l1zxdgtSr
    dc: temp = 38 C        (58.7 %), step = 1 C          (667 m%)
 Start ADE Session ID: 3EpsvM7l1zxdgtSr
    dc: temp = 39 C        (59.3 %), step = 1 C          (667 m%)
 Start ADE Session ID: 3EpsvM7l1zxdgtSr
    dc: temp = 40 C          (60 %), step = 1 C          (667 m%)
 Start ADE Session ID: 3EpsvM7l1zxdgtSr
    dc: temp = 41 C        (60.7 %), step = 1 C          (667 m%)
 Start ADE Session ID: 3EpsvM7l1zxdgtSr
    dc: temp = 42 C        (61.3 %), step = 1 C          (667 m%)
 Start ADE Session ID: 3EpsvM7l1zxdgtSr
    dc: temp = 43 C          (62 %), step = 1 C          (667 m%)
 Start ADE Session ID: 3EpsvM7l1zxdgtSr
    dc: temp = 44 C        (62.7 %), step = 1 C          (667 m%)
 Start ADE Session ID: 3EpsvM7l1zxdgtSr
    dc: temp = 45 C        (63.3 %), step = 1 C          (667 m%)
 Start ADE Session ID: 3EpsvM7l1zxdgtSr
    dc: temp = 46 C          (64 %), step = 1 C          (667 m%)
 Start ADE Session ID: 3EpsvM7l1zxdgtSr
    dc: temp = 47 C        (64.7 %), step = 1 C          (667 m%)
 Start ADE Session ID: 3EpsvM7l1zxdgtSr
    dc: temp = 48 C        (65.3 %), step = 1 C          (667 m%)
 Start ADE Session ID: 3EpsvM7l1zxdgtSr
    dc: temp = 49 C          (66 %), step = 1 C          (667 m%)
 Start ADE Session ID: 3EpsvM7l1zxdgtSr
    dc: temp = 50 C        (66.7 %), step = 1 C          (667 m%)
 Start ADE Session ID: 3EpsvM7l1zxdgtSr
    dc: temp = 51 C        (67.3 %), step = 1 C          (667 m%)
 Start ADE Session ID: 3EpsvM7l1zxdgtSr
    dc: temp = 52 C          (68 %), step = 1 C          (667 m%)
 Start ADE Session ID: 3EpsvM7l1zxdgtSr
    dc: temp = 53 C        (68.7 %), step = 1 C          (667 m%)
 Start ADE Session ID: 3EpsvM7l1zxdgtSr
    dc: temp = 54 C        (69.3 %), step = 1 C          (667 m%)
 Start ADE Session ID: 3EpsvM7l1zxdgtSr
    dc: temp = 55 C          (70 %), step = 1 C          (667 m%)
 Start ADE Session ID: 3EpsvM7l1zxdgtSr
    dc: temp = 56 C        (70.7 %), step = 1 C          (667 m%)
 Start ADE Session ID: 3EpsvM7l1zxdgtSr
    dc: temp = 57 C        (71.3 %), step = 1 C          (667 m%)
 Start ADE Session ID: 3EpsvM7l1zxdgtSr
    dc: temp = 58 C          (72 %), step = 1 C          (667 m%)
 Start ADE Session ID: 3EpsvM7l1zxdgtSr
    dc: temp = 59 C        (72.7 %), step = 1 C          (667 m%)
 Start ADE Session ID: 3EpsvM7l1zxdgtSr
    dc: temp = 60 C        (73.3 %), step = 1 C          (667 m%)
 Start ADE Session ID: 3EpsvM7l1zxdgtSr
    dc: temp = 61 C          (74 %), step = 1 C          (667 m%)
 Start ADE Session ID: 3EpsvM7l1zxdgtSr
    dc: temp = 62 C        (74.7 %), step = 1 C          (667 m%)
 Start ADE Session ID: 3EpsvM7l1zxdgtSr
    dc: temp = 63 C        (75.3 %), step = 1 C          (667 m%)
 Start ADE Session ID: 3EpsvM7l1zxdgtSr
    dc: temp = 64 C          (76 %), step = 1 C          (667 m%)
 Start ADE Session ID: 3EpsvM7l1zxdgtSr
    dc: temp = 65 C        (76.7 %), step = 1 C          (667 m%)
 Start ADE Session ID: 3EpsvM7l1zxdgtSr
    dc: temp = 66 C        (77.3 %), step = 1 C          (667 m%)
 Start ADE Session ID: 3EpsvM7l1zxdgtSr
    dc: temp = 67 C          (78 %), step = 1 C          (667 m%)
 Start ADE Session ID: 3EpsvM7l1zxdgtSr
    dc: temp = 68 C        (78.7 %), step = 1 C          (667 m%)
 Start ADE Session ID: 3EpsvM7l1zxdgtSr
    dc: temp = 69 C        (79.3 %), step = 1 C          (667 m%)
 Start ADE Session ID: 3EpsvM7l1zxdgtSr
    dc: temp = 70 C          (80 %), step = 1 C          (667 m%)
 Start ADE Session ID: 3EpsvM7l1zxdgtSr
    dc: temp = 71 C        (80.7 %), step = 1 C          (667 m%)
 Start ADE Session ID: 3EpsvM7l1zxdgtSr
    dc: temp = 72 C        (81.3 %), step = 1 C          (667 m%)
 Start ADE Session ID: 3EpsvM7l1zxdgtSr
    dc: temp = 73 C          (82 %), step = 1 C          (667 m%)
 Start ADE Session ID: 3EpsvM7l1zxdgtSr
    dc: temp = 74 C        (82.7 %), step = 1 C          (667 m%)
 Start ADE Session ID: 3EpsvM7l1zxdgtSr
    dc: temp = 75 C        (83.3 %), step = 1 C          (667 m%)
 Start ADE Session ID: 3EpsvM7l1zxdgtSr
    dc: temp = 76 C          (84 %), step = 1 C          (667 m%)
 Start ADE Session ID: 3EpsvM7l1zxdgtSr
    dc: temp = 77 C        (84.7 %), step = 1 C          (667 m%)
 Start ADE Session ID: 3EpsvM7l1zxdgtSr
    dc: temp = 78 C        (85.3 %), step = 1 C          (667 m%)
 Start ADE Session ID: 3EpsvM7l1zxdgtSr
    dc: temp = 79 C          (86 %), step = 1 C          (667 m%)
 Start ADE Session ID: 3EpsvM7l1zxdgtSr
    dc: temp = 80 C        (86.7 %), step = 1 C          (667 m%)
 Start ADE Session ID: 3EpsvM7l1zxdgtSr
    dc: temp = 81 C        (87.3 %), step = 1 C          (667 m%)
 Start ADE Session ID: 3EpsvM7l1zxdgtSr
    dc: temp = 82 C          (88 %), step = 1 C          (667 m%)
 Start ADE Session ID: 3EpsvM7l1zxdgtSr
    dc: temp = 83 C        (88.7 %), step = 1 C          (667 m%)
 Start ADE Session ID: 3EpsvM7l1zxdgtSr
    dc: temp = 84 C        (89.3 %), step = 1 C          (667 m%)
 Start ADE Session ID: 3EpsvM7l1zxdgtSr
    dc: temp = 85 C          (90 %), step = 1 C          (667 m%)
 Start ADE Session ID: 3EpsvM7l1zxdgtSr
    dc: temp = 86 C        (90.7 %), step = 1 C          (667 m%)
 Start ADE Session ID: 3EpsvM7l1zxdgtSr
    dc: temp = 87 C        (91.3 %), step = 1 C          (667 m%)
 Start ADE Session ID: 3EpsvM7l1zxdgtSr
    dc: temp = 88 C          (92 %), step = 1 C          (667 m%)
 Start ADE Session ID: 3EpsvM7l1zxdgtSr
    dc: temp = 89 C        (92.7 %), step = 1 C          (667 m%)
 Start ADE Session ID: 3EpsvM7l1zxdgtSr
    dc: temp = 90 C        (93.3 %), step = 1 C          (667 m%)
 Start ADE Session ID: 3EpsvM7l1zxdgtSr
    dc: temp = 91 C          (94 %), step = 1 C          (667 m%)
 Start ADE Session ID: 3EpsvM7l1zxdgtSr
    dc: temp = 92 C        (94.7 %), step = 1 C          (667 m%)
 Start ADE Session ID: 3EpsvM7l1zxdgtSr
    dc: temp = 93 C        (95.3 %), step = 1 C          (667 m%)
 Start ADE Session ID: 3EpsvM7l1zxdgtSr
    dc: temp = 94 C          (96 %), step = 1 C          (667 m%)
 Start ADE Session ID: 3EpsvM7l1zxdgtSr
    dc: temp = 95 C        (96.7 %), step = 1 C          (667 m%)
 Start ADE Session ID: 3EpsvM7l1zxdgtSr
    dc: temp = 96 C        (97.3 %), step = 1 C          (667 m%)
 Start ADE Session ID: 3EpsvM7l1zxdgtSr
    dc: temp = 97 C          (98 %), step = 1 C          (667 m%)
 Start ADE Session ID: 3EpsvM7l1zxdgtSr
    dc: temp = 98 C        (98.7 %), step = 1 C          (667 m%)
 Start ADE Session ID: 3EpsvM7l1zxdgtSr
    dc: temp = 99 C        (99.3 %), step = 1 C          (667 m%)
 Start ADE Session ID: 3EpsvM7l1zxdgtSr
    dc: temp = 100 C        (100 %), step = 1 C          (667 m%)

Maximum value achieved for any signal of each quantity: 
V: V(vdd!) = 1.2 V
I: I(V1:p) = 57.17 uA
DC simulation time: CPU = 97.535 ms, elapsed = 130.55 ms.
 Start ADE Session ID: 3EpsvM7l1zxdgtSr

Notice from spectre at temp = 100 C during DC analysis `dc'.
    The value of parameter 'temp' has been reset to the original value 27.

Total time required for dc analysis `dc': CPU = 97.563 ms, elapsed = 130.983 ms, util. = 74.5%.
Time accumulated: CPU = 341.795 ms, elapsed = 1.71555 s.
Peak resident memory used = 210 Mbytes.

modelParameter: writing model parameter values to rawfile.

Opening the PSF file ../psf/modelParameter.info ...
element: writing instance parameter values to rawfile.

Opening the PSF file ../psf/element.info ...
outputParameter: writing output parameter values to rawfile.

Opening the PSF file ../psf/outputParameter.info ...
designParamVals: writing netlist parameters to rawfile.

Opening the PSFASCII file ../psf/designParamVals.info ...
primitives: writing primitives to rawfile.

Opening the PSFASCII file ../psf/primitives.info.primitives ...
subckts: writing subcircuits to rawfile.

Opening the PSFASCII file ../psf/subckts.info.subckts ...
Licensing Information:
Lic Summary:
[16:40:45.405994] Cdslmd servers:30000@cadence.cnfm.fr
[16:40:45.406011] Feature usage summary:
[16:40:45.406016] Virtuoso_Multi_mode_Simulation


Aggregate audit (4:40:45 PM, Thur May 7, 2026):
Time used: CPU = 351 ms, elapsed = 1.75 s, util. = 20.1%.
Time spent in licensing: elapsed = 1.38 s, percentage of total = 78.8%.
Peak memory used = 211 Mbytes.
Simulation started at: 4:40:43 PM, Thur May 7, 2026, ended at: 4:40:45 PM, Thur May 7, 2026, with elapsed time (wall clock): 1.75 s.
spectre completes with 0 errors, 6 warnings, and 8 notices.


********* LOG ENDS **************
**                             **
**                             **
********* LOG STARTS ************



Spectre (R) Circuit Simulator
Version 24.1.0.198.isr3 64bit -- 6 Jan 2025
Copyright (C) 1989-2024 Cadence Design Systems, Inc. All rights reserved worldwide. Cadence and Spectre are registered trademarks of Cadence Design Systems, Inc. All others are the property of their respective holders.

Includes RSA BSAFE(R) Cryptographic or Security Protocol Software from RSA Security, Inc.

User: carbou   Host: brahms   HostID: E3843D43   PID: 268038
Memory  available: 25.8777 GB  physical: 33.1539 GB
Linux   : AlmaLinux release 9.7 (Moss Jungle Cat)
CPU Type: Intel(R) Core(TM) i5-9500 CPU @ 3.00GHz
All processors running at 4197.4 MHz
        Socket: Processors
        0:       0,  1,  2,  3,  4,  5
        
System load averages (1min, 5min, 15min) : 20.5 %, 17.3 %, 14.5 %
HPC is enabled


Simulating `input.scs' on brahms at 4:40:49 PM, Thur May 7, 2026 (process id: 268038).
Current working directory: /users/enseig/carbou/Documents/S2/EACN/Projet/cadence_ihp_sg13g2/cds/sim/cours_EACN_SESI/bandgap/maestro/results/maestro/ExplorerRun.0/2/cours_EACN_SESI_bandgap_1/netlist
Command line:
    /users/soft/opus/Linux/SPECTRE-24.10.03.198/tools/bin/spectre -64  \
        input.scs +escchars +log ../psf/spectre.out -format psfxl -raw  \
        ../psf  \
        -I/users/soft/techno/dev/IHP/sg13/SG13G2_618_rev1.3.3/lib/TL_SG13/RLCG/spectre/  \
        +aps +mt +lqtimeout 900 -maxw 5 -maxn 5 -env ade  \
        +adespetkn=0001089D13A302B663E41FB550AF0DF415A679A322D5069144BF588C12F604E07EF416DC01A319B562BB63D37AFD3CB445A35BE1778E429C63DD3BC81BEC4F9247DB79D15D9175FF349864C67B9974D35BED75CA7A8A74D359EB43E118F874D30EA879D118F874D3349879D118F874D33498102DBC89D0A25D64000036D4  \
        +mts -ahdllibdir  \
        /users/enseig/carbou/Documents/S2/EACN/Projet/cadence_ihp_sg13g2/cds/sim/cours_EACN_SESI/bandgap/maestro/results/maestro/ExplorerRun.0/sharedData/lscsJob17/ahdl/input.ahdlSimDB  \
        +logstatus

Simulation Id: HgY9uuWE6O8U1ZsC
Licensing Information:
[16:40:49.291265] Configured Lic search path (24.01-s002): 30000@cadence.cnfm.fr

Licensing Information:
[16:40:50.243864] Periodic Lic check successful

Loading /users/soft/opus/Linux/SPECTRE-24.10.03.198/tools.lnx86/cmi/lib/64bit/5.0/libinfineon_sh.so ...
Loading /users/soft/opus/Linux/SPECTRE-24.10.03.198/tools.lnx86/cmi/lib/64bit/5.0/libphilips_I_sh.so ...
Loading /users/soft/opus/Linux/SPECTRE-24.10.03.198/tools.lnx86/cmi/lib/64bit/5.0/libphilips_sh.so ...
Loading /users/soft/opus/Linux/SPECTRE-24.10.03.198/tools.lnx86/cmi/lib/64bit/5.0/libsparam_sh.so ...
Loading /users/soft/opus/Linux/SPECTRE-24.10.03.198/tools.lnx86/cmi/lib/64bit/5.0/libstmodels_sh.so ...
Reading file:  /users/enseig/carbou/Documents/S2/EACN/Projet/cadence_ihp_sg13g2/cds/sim/cours_EACN_SESI/bandgap/maestro/results/maestro/ExplorerRun.0/2/cours_EACN_SESI_bandgap_1/netlist/input.scs
Reading file:  /users/soft/opus/Linux/SPECTRE-24.10.03.198/tools.lnx86/spectre/etc/configs/spectre.cfg
Reading file:  /users/enseig/carbou/Documents/S2/EACN/Projet/cadence_ihp_sg13g2/cds/sim/cours_EACN_SESI/bandgap/maestro/results/maestro/ExplorerRun.0/2/cours_EACN_SESI_bandgap_1/netlist/ade_e.scs
Reading file:  /users/soft/techno/dev/IHP/sg13/SG13G2_618_rev1.3.3/tech/SG13G2_HBT/VBIC/spectre/SG13G2_cornerBIP_vbic.scs
Reading file:  /users/soft/techno/dev/IHP/sg13/SG13G2_618_rev1.3.3/tech/SG13G2_HBT/VBIC/spectre/SG13G2_hbt_vbic.lib
Reading file:  /users/soft/techno/dev/IHP/sg13/SG13G2_618_rev1.3.3/tech/SG13G2_HBT/VBIC/spectre/SG13G2_hbt_stat.scs
Reading file:  /users/soft/techno/dev/IHP/sg13/SG13G2_618_rev1.3.3/tech/SG13G2_HBT/VBIC/spectre/SG13G2_hbt_mm.scs
Reading file:  /users/soft/techno/dev/IHP/sg13/SG13G2_618_rev1.3.3/tech/SG13_MOS/library/spectreG2/cornerMOSlv_psp.scs
Reading file:  /users/soft/techno/dev/IHP/sg13/SG13G2_618_rev1.3.3/tech/SG13_MOS/library/spectreG2/sg13g2_moslv_psp_stat.scs
Reading file:  /users/soft/techno/dev/IHP/sg13/SG13G2_618_rev1.3.3/tech/SG13_MOS/library/spectreG2/sg13g2_moslv_psp_mod.lib
Reading file:  /users/soft/techno/dev/IHP/sg13/SG13G2_618_rev1.3.3/tech/SG13_MOS/library/spectreG2/sg13g2_moslv_psp_parm.scs
Reading file:  /users/soft/techno/dev/IHP/sg13/SG13G2_618_rev1.3.3/tech/SG13_MOS/library/spectreG2/cornerMOShv_psp.scs
Reading file:  /users/soft/techno/dev/IHP/sg13/SG13G2_618_rev1.3.3/tech/SG13_MOS/library/spectreG2/sg13g2_moshv_psp_stat.scs
Reading file:  /users/soft/techno/dev/IHP/sg13/SG13G2_618_rev1.3.3/tech/SG13_MOS/library/spectreG2/sg13g2_moshv_psp_mod.lib
Reading file:  /users/soft/techno/dev/IHP/sg13/SG13G2_618_rev1.3.3/tech/SG13_MOS/library/spectreG2/sg13g2_moshv_psp_parm.scs
Reading file:  /users/soft/techno/dev/IHP/sg13/SG13G2_618_rev1.3.3/tech/SG13_MOS/library/spectreG2/sg13g2_svaricaphv_mosvar_mod.lib
Reading file:  /users/soft/techno/dev/IHP/sg13/SG13G2_618_rev1.3.3/tech/SG13G2_PASSIVES/spectre/SG13_cornerRES.scs
Reading file:  /users/soft/techno/dev/IHP/sg13/SG13G2_618_rev1.3.3/tech/SG13G2_PASSIVES/spectre/SG13_res_mm.scs
Reading file:  /users/soft/techno/dev/IHP/sg13/SG13G2_618_rev1.3.3/tech/SG13G2_PASSIVES/spectre/SG13_res_stat.scs
Reading file:  /users/soft/techno/dev/IHP/sg13/SG13G2_618_rev1.3.3/tech/SG13G2_PASSIVES/spectre/SG13_res.lib
Reading file:  /users/soft/techno/dev/IHP/sg13/SG13G2_618_rev1.3.3/tech/SG13G2_PASSIVES/spectre/SG13_cornerCAP.scs
Reading file:  /users/soft/techno/dev/IHP/sg13/SG13G2_618_rev1.3.3/tech/SG13G2_PASSIVES/spectre/SG13_cap_mm.scs
Reading file:  /users/soft/techno/dev/IHP/sg13/SG13G2_618_rev1.3.3/tech/SG13G2_PASSIVES/spectre/SG13_cap_stat.scs
Reading file:  /users/soft/techno/dev/IHP/sg13/SG13G2_618_rev1.3.3/tech/SG13G2_PASSIVES/spectre/SG13_cap.lib
Reading file:  /users/soft/techno/dev/IHP/sg13/SG13G2_618_rev1.3.3/tech/SG13G2_PASSIVES/spectre/sg13g2_dschottky_nbl1_corner.scs
Reading file:  /users/soft/techno/dev/IHP/sg13/SG13G2_618_rev1.3.3/tech/SG13G2_PASSIVES/spectre/sg13g2_dschottky_nbl1_stat.scs
Reading file:  /users/soft/techno/dev/IHP/sg13/SG13G2_618_rev1.3.3/tech/SG13G2_PASSIVES/spectre/sg13g2_dschottky_nbl1_mod.lib
Reading file:  /users/soft/techno/dev/IHP/sg13/SG13G2_618_rev1.3.3/tech/SG13G2_PASSIVES/spectre/SG13_diodes.lib
Reading file:  /users/soft/techno/dev/IHP/sg13/SG13G2_618_rev1.3.3/tech/SG13_ESD/spectre/SG13_esd.lib
Reading file:  /users/soft/techno/dev/IHP/sg13/SG13G2_618_rev1.3.3/tech/SG13_PASSIVES/spectre/SG13_cornerTSV.scs
Reading file:  /users/soft/techno/dev/IHP/sg13/SG13G2_618_rev1.3.3/tech/SG13_PASSIVES/spectre/SG13_paramsTSV.scs
Reading file:  /users/soft/techno/dev/IHP/sg13/SG13G2_618_rev1.3.3/tech/SG13_PASSIVES/spectre/SG13_tsv.lib
Reading file:  /users/soft/techno/dev/IHP/sg13/SG13G2_618_rev1.3.3/tech/SG13_PASSIVES/spectre/SG13_bondpad.lib

Notice from spectre in `bondpad_model', during circuit read-in.
    "/users/soft/techno/dev/IHP/sg13/SG13G2_618_rev1.3.3/tech/SG13_PASSIVES/spectre/SG13_bondpad.lib" 13: Subcircuit 'bondpad_model' is empty.

Reading file:  /users/enseig/galayko/cours_EACN/projet/cadence_ihp_sg13g2/cds/allFunc.scs
Reading link:  /users/enseig/carbou/Documents/S2/EACN/Projet/cadence_ihp_sg13g2/cds/sim/cours_EACN_SESI/bandgap/maestro/results/maestro/ExplorerRun.0/2/cours_EACN_SESI_bandgap_1/netlist/netlist
Reading file:  /users/enseig/carbou/Documents/S2/EACN/Projet/cadence_ihp_sg13g2/cds/sim/cours_EACN_SESI/bandgap/maestro/results/maestro/ExplorerRun.0/psf/cours_EACN_SESI_bandgap_1/netlist/netlist
Time for NDB Parsing: CPU = 124.515 ms, elapsed = 542.526 ms.
Time accumulated: CPU = 273.708 ms, elapsed = 542.528 ms.
Peak resident memory used = 193 Mbytes.

Time for Elaboration: CPU = 32.599 ms, elapsed = 34.724 ms.
Time accumulated: CPU = 306.516 ms, elapsed = 577.459 ms.
Peak resident memory used = 202 Mbytes.

 Start ADE Session ID: HgY9uuWE6O8U1ZsC


Warning from spectre during hierarchy flattening.
    WARNING (SPECTRE-8527): There are some nodes and instances removed from the netlist topology check. Check the circuit and correct the topology. Or use preserve_inst to keep them if necessary.

***********************************************
  Total removed instances 3 ( dangling 3, terminals connected together 0)  

Warning from spectre during hierarchy flattening.
    WARNING (SPECTRE-8529): Dangling instance. R4 is removed.
    WARNING (SPECTRE-8529): Dangling instance. D9_turbo_m4 is removed.
    WARNING (SPECTRE-8529): Dangling instance. D5 is removed.


  Total removed nodes 2 ( dangling nodes 2, floating nodes 0 )

Warning from spectre during hierarchy flattening.
    WARNING (SPECTRE-8530): Dangling node. net12 is removed.
    WARNING (SPECTRE-8530): Dangling node. net7 is removed.

***********************************************
Time for EDB Visiting: CPU = 1.221 ms, elapsed = 5.68891 ms.
Time accumulated: CPU = 307.856 ms, elapsed = 583.267 ms.
Peak resident memory used = 203 Mbytes.


Notice from spectre during topology check.
    Only one connection to node `sub!'.
Notice from spectre during initial setup.
    Multithreading is disabled due to the size of the design being too small.


Netlist title:
        // Point Netlist Generated on: May  7 16:40:44 2026


Global user options:
         psfversion = 1.4.0
            vabstol = 1e-06
            iabstol = 1e-12
               temp = 27
               gmin = 1e-12
             rforce = 1
           maxnotes = 5
           maxwarns = 5
             digits = 5
               cols = 80
             pivrel = 0.001
           sensfile = ../psf/sens.output
     checklimitdest = sqldb
      ignorezerovar = yes
               save = allpub
           currents = all
     subcktprobelvl = 5
       saveahdlvars = all
             reltol = 0.001
               tnom = 27
             scalem = 1
              scale = 1

Scoped user options:

Circuit inventory:
              nodes 14
                bjt 10    
          pspnqs103 3     
           resistor 5     
               vcvs 1     
            vsource 6     

Analysis and control statement inventory:
                 dc 2     
               info 7     

Output statements:
             .probe 0     
           .measure 0     
               save 1     

Design checks inventory:
          paramtest 13    


Notice from spectre during initial setup.
    Protected devices exist and are not included in the circuit inventory.
    3 vsources are shorted because their absolute value is less than or equal to 'vabsshort'.
    APS enabled.

Time for parsing: CPU = 2.863 ms, elapsed = 20.231 ms.
Time accumulated: CPU = 310.856 ms, elapsed = 604.915 ms.
Peak resident memory used = 207 Mbytes.

~~~~~~~~~~~~~~~~~~~~~~
Pre-Simulation Summary
~~~~~~~~~~~~~~~~~~~~~~
   -   (APS) Multi-threading. The recommended number of threads is 1, consider adding +mt=1 on command line.
~~~~~~~~~~~~~~~~~~~~~~

******************
DC Analysis `dcOp'
******************

Opening the PSF file ../psf/dcOp.dc ...
Important parameter values:
    reltol = 1e-03
    abstol(V) = 1 uV
    abstol(I) = 1 pA
    temp = 27 C
    tnom = 27 C
    tempeffects = all
    gmindc = 1 pS
    rabsshort = 1 mOhm

Maximum value achieved for any signal of each quantity: 
V: V(vdd!) = 1.2 V
I: I(V1:p) = 53.1 uA
Convergence achieved in 20 iterations.
DC simulation time: CPU = 2.902 ms, elapsed = 7.22194 ms.
Total time required for dc analysis `dcOp': CPU = 2.952 ms, elapsed = 7.2732 ms, util. = 40.6%.
Time accumulated: CPU = 323.883 ms, elapsed = 623.606 ms.
Peak resident memory used = 211 Mbytes.

dcOpInfo: writing operating point information to rawfile.

Opening the PSF file ../psf/dcOpInfo.info ...
 Start ADE Session ID: HgY9uuWE6O8U1ZsC

*****************************************
DC Analysis `dc': temp = (-50 C -> 100 C)
*****************************************

Opening the PSF file ../psf/dc.dc ...
Important parameter values:
    reltol = 1e-03
    abstol(V) = 1 uV
    abstol(I) = 1 pA
    temp = -50 C
    tnom = 27 C
    tempeffects = all
    gmindc = 1 pS
    rabsshort = 1 mOhm
 Start ADE Session ID: HgY9uuWE6O8U1ZsC
 Start ADE Session ID: HgY9uuWE6O8U1ZsC
 Start ADE Session ID: HgY9uuWE6O8U1ZsC
 Start ADE Session ID: HgY9uuWE6O8U1ZsC
    dc: temp = -46 C       (2.67 %), step = 1 C          (667 m%)
 Start ADE Session ID: HgY9uuWE6O8U1ZsC
    dc: temp = -45 C       (3.33 %), step = 1 C          (667 m%)
 Start ADE Session ID: HgY9uuWE6O8U1ZsC
    dc: temp = -44 C          (4 %), step = 1 C          (667 m%)
 Start ADE Session ID: HgY9uuWE6O8U1ZsC
    dc: temp = -43 C       (4.67 %), step = 1 C          (667 m%)
 Start ADE Session ID: HgY9uuWE6O8U1ZsC
    dc: temp = -42 C       (5.33 %), step = 1 C          (667 m%)
 Start ADE Session ID: HgY9uuWE6O8U1ZsC
    dc: temp = -41 C          (6 %), step = 1 C          (667 m%)
 Start ADE Session ID: HgY9uuWE6O8U1ZsC
    dc: temp = -40 C       (6.67 %), step = 1 C          (667 m%)
 Start ADE Session ID: HgY9uuWE6O8U1ZsC
    dc: temp = -39 C       (7.33 %), step = 1 C          (667 m%)
 Start ADE Session ID: HgY9uuWE6O8U1ZsC
    dc: temp = -38 C          (8 %), step = 1 C          (667 m%)
 Start ADE Session ID: HgY9uuWE6O8U1ZsC
    dc: temp = -37 C       (8.67 %), step = 1 C          (667 m%)
 Start ADE Session ID: HgY9uuWE6O8U1ZsC
    dc: temp = -36 C       (9.33 %), step = 1 C          (667 m%)
 Start ADE Session ID: HgY9uuWE6O8U1ZsC
    dc: temp = -35 C         (10 %), step = 1 C          (667 m%)
 Start ADE Session ID: HgY9uuWE6O8U1ZsC
    dc: temp = -34 C       (10.7 %), step = 1 C          (667 m%)
 Start ADE Session ID: HgY9uuWE6O8U1ZsC
    dc: temp = -33 C       (11.3 %), step = 1 C          (667 m%)
 Start ADE Session ID: HgY9uuWE6O8U1ZsC
    dc: temp = -32 C         (12 %), step = 1 C          (667 m%)
 Start ADE Session ID: HgY9uuWE6O8U1ZsC
    dc: temp = -31 C       (12.7 %), step = 1 C          (667 m%)
 Start ADE Session ID: HgY9uuWE6O8U1ZsC
    dc: temp = -30 C       (13.3 %), step = 1 C          (667 m%)
 Start ADE Session ID: HgY9uuWE6O8U1ZsC
    dc: temp = -29 C         (14 %), step = 1 C          (667 m%)
 Start ADE Session ID: HgY9uuWE6O8U1ZsC
    dc: temp = -28 C       (14.7 %), step = 1 C          (667 m%)
 Start ADE Session ID: HgY9uuWE6O8U1ZsC
    dc: temp = -27 C       (15.3 %), step = 1 C          (667 m%)
 Start ADE Session ID: HgY9uuWE6O8U1ZsC
    dc: temp = -26 C         (16 %), step = 1 C          (667 m%)
 Start ADE Session ID: HgY9uuWE6O8U1ZsC
    dc: temp = -25 C       (16.7 %), step = 1 C          (667 m%)
 Start ADE Session ID: HgY9uuWE6O8U1ZsC
    dc: temp = -24 C       (17.3 %), step = 1 C          (667 m%)
 Start ADE Session ID: HgY9uuWE6O8U1ZsC
    dc: temp = -23 C         (18 %), step = 1 C          (667 m%)
 Start ADE Session ID: HgY9uuWE6O8U1ZsC
    dc: temp = -22 C       (18.7 %), step = 1 C          (667 m%)
 Start ADE Session ID: HgY9uuWE6O8U1ZsC
    dc: temp = -21 C       (19.3 %), step = 1 C          (667 m%)
 Start ADE Session ID: HgY9uuWE6O8U1ZsC
    dc: temp = -20 C         (20 %), step = 1 C          (667 m%)
 Start ADE Session ID: HgY9uuWE6O8U1ZsC
    dc: temp = -19 C       (20.7 %), step = 1 C          (667 m%)
 Start ADE Session ID: HgY9uuWE6O8U1ZsC
    dc: temp = -18 C       (21.3 %), step = 1 C          (667 m%)
 Start ADE Session ID: HgY9uuWE6O8U1ZsC
    dc: temp = -17 C         (22 %), step = 1 C          (667 m%)
 Start ADE Session ID: HgY9uuWE6O8U1ZsC
    dc: temp = -16 C       (22.7 %), step = 1 C          (667 m%)
 Start ADE Session ID: HgY9uuWE6O8U1ZsC
    dc: temp = -15 C       (23.3 %), step = 1 C          (667 m%)
 Start ADE Session ID: HgY9uuWE6O8U1ZsC
    dc: temp = -14 C         (24 %), step = 1 C          (667 m%)
 Start ADE Session ID: HgY9uuWE6O8U1ZsC
    dc: temp = -13 C       (24.7 %), step = 1 C          (667 m%)
 Start ADE Session ID: HgY9uuWE6O8U1ZsC
    dc: temp = -12 C       (25.3 %), step = 1 C          (667 m%)
 Start ADE Session ID: HgY9uuWE6O8U1ZsC
    dc: temp = -11 C         (26 %), step = 1 C          (667 m%)
 Start ADE Session ID: HgY9uuWE6O8U1ZsC
    dc: temp = -10 C       (26.7 %), step = 1 C          (667 m%)
 Start ADE Session ID: HgY9uuWE6O8U1ZsC
    dc: temp = -9 C        (27.3 %), step = 1 C          (667 m%)
 Start ADE Session ID: HgY9uuWE6O8U1ZsC
    dc: temp = -8 C          (28 %), step = 1 C          (667 m%)
 Start ADE Session ID: HgY9uuWE6O8U1ZsC
    dc: temp = -7 C        (28.7 %), step = 1 C          (667 m%)
 Start ADE Session ID: HgY9uuWE6O8U1ZsC
    dc: temp = -6 C        (29.3 %), step = 1 C          (667 m%)
 Start ADE Session ID: HgY9uuWE6O8U1ZsC
    dc: temp = -5 C          (30 %), step = 1 C          (667 m%)
 Start ADE Session ID: HgY9uuWE6O8U1ZsC
    dc: temp = -4 C        (30.7 %), step = 1 C          (667 m%)
 Start ADE Session ID: HgY9uuWE6O8U1ZsC
    dc: temp = -3 C        (31.3 %), step = 1 C          (667 m%)
 Start ADE Session ID: HgY9uuWE6O8U1ZsC
    dc: temp = -2 C          (32 %), step = 1 C          (667 m%)
 Start ADE Session ID: HgY9uuWE6O8U1ZsC
    dc: temp = -1 C        (32.7 %), step = 1 C          (667 m%)
 Start ADE Session ID: HgY9uuWE6O8U1ZsC
    dc: temp = 0 C         (33.3 %), step = 1 C          (667 m%)
 Start ADE Session ID: HgY9uuWE6O8U1ZsC
    dc: temp = 1 C           (34 %), step = 1 C          (667 m%)
 Start ADE Session ID: HgY9uuWE6O8U1ZsC
    dc: temp = 2 C         (34.7 %), step = 1 C          (667 m%)
 Start ADE Session ID: HgY9uuWE6O8U1ZsC
    dc: temp = 3 C         (35.3 %), step = 1 C          (667 m%)
 Start ADE Session ID: HgY9uuWE6O8U1ZsC
    dc: temp = 4 C           (36 %), step = 1 C          (667 m%)
 Start ADE Session ID: HgY9uuWE6O8U1ZsC
    dc: temp = 5 C         (36.7 %), step = 1 C          (667 m%)
 Start ADE Session ID: HgY9uuWE6O8U1ZsC
    dc: temp = 6 C         (37.3 %), step = 1 C          (667 m%)
 Start ADE Session ID: HgY9uuWE6O8U1ZsC
    dc: temp = 7 C           (38 %), step = 1 C          (667 m%)
 Start ADE Session ID: HgY9uuWE6O8U1ZsC
    dc: temp = 8 C         (38.7 %), step = 1 C          (667 m%)
 Start ADE Session ID: HgY9uuWE6O8U1ZsC
    dc: temp = 9 C         (39.3 %), step = 1 C          (667 m%)
 Start ADE Session ID: HgY9uuWE6O8U1ZsC
    dc: temp = 10 C          (40 %), step = 1 C          (667 m%)
 Start ADE Session ID: HgY9uuWE6O8U1ZsC
    dc: temp = 11 C        (40.7 %), step = 1 C          (667 m%)
 Start ADE Session ID: HgY9uuWE6O8U1ZsC
    dc: temp = 12 C        (41.3 %), step = 1 C          (667 m%)
 Start ADE Session ID: HgY9uuWE6O8U1ZsC
    dc: temp = 13 C          (42 %), step = 1 C          (667 m%)
 Start ADE Session ID: HgY9uuWE6O8U1ZsC
    dc: temp = 14 C        (42.7 %), step = 1 C          (667 m%)
 Start ADE Session ID: HgY9uuWE6O8U1ZsC
    dc: temp = 15 C        (43.3 %), step = 1 C          (667 m%)
 Start ADE Session ID: HgY9uuWE6O8U1ZsC
    dc: temp = 16 C          (44 %), step = 1 C          (667 m%)
 Start ADE Session ID: HgY9uuWE6O8U1ZsC
    dc: temp = 17 C        (44.7 %), step = 1 C          (667 m%)
 Start ADE Session ID: HgY9uuWE6O8U1ZsC
    dc: temp = 18 C        (45.3 %), step = 1 C          (667 m%)
 Start ADE Session ID: HgY9uuWE6O8U1ZsC
    dc: temp = 19 C          (46 %), step = 1 C          (667 m%)
 Start ADE Session ID: HgY9uuWE6O8U1ZsC
    dc: temp = 20 C        (46.7 %), step = 1 C          (667 m%)
 Start ADE Session ID: HgY9uuWE6O8U1ZsC
    dc: temp = 21 C        (47.3 %), step = 1 C          (667 m%)
 Start ADE Session ID: HgY9uuWE6O8U1ZsC
    dc: temp = 22 C          (48 %), step = 1 C          (667 m%)
 Start ADE Session ID: HgY9uuWE6O8U1ZsC
    dc: temp = 23 C        (48.7 %), step = 1 C          (667 m%)
 Start ADE Session ID: HgY9uuWE6O8U1ZsC
    dc: temp = 24 C        (49.3 %), step = 1 C          (667 m%)
 Start ADE Session ID: HgY9uuWE6O8U1ZsC
    dc: temp = 25 C          (50 %), step = 1 C          (667 m%)
 Start ADE Session ID: HgY9uuWE6O8U1ZsC
    dc: temp = 26 C        (50.7 %), step = 1 C          (667 m%)
 Start ADE Session ID: HgY9uuWE6O8U1ZsC
    dc: temp = 27 C        (51.3 %), step = 1 C          (667 m%)
 Start ADE Session ID: HgY9uuWE6O8U1ZsC
    dc: temp = 28 C          (52 %), step = 1 C          (667 m%)
 Start ADE Session ID: HgY9uuWE6O8U1ZsC
    dc: temp = 29 C        (52.7 %), step = 1 C          (667 m%)
 Start ADE Session ID: HgY9uuWE6O8U1ZsC
    dc: temp = 30 C        (53.3 %), step = 1 C          (667 m%)
 Start ADE Session ID: HgY9uuWE6O8U1ZsC
    dc: temp = 31 C          (54 %), step = 1 C          (667 m%)
 Start ADE Session ID: HgY9uuWE6O8U1ZsC
    dc: temp = 32 C        (54.7 %), step = 1 C          (667 m%)
 Start ADE Session ID: HgY9uuWE6O8U1ZsC
    dc: temp = 33 C        (55.3 %), step = 1 C          (667 m%)
 Start ADE Session ID: HgY9uuWE6O8U1ZsC
    dc: temp = 34 C          (56 %), step = 1 C          (667 m%)
 Start ADE Session ID: HgY9uuWE6O8U1ZsC
    dc: temp = 35 C        (56.7 %), step = 1 C          (667 m%)
 Start ADE Session ID: HgY9uuWE6O8U1ZsC
    dc: temp = 36 C        (57.3 %), step = 1 C          (667 m%)
 Start ADE Session ID: HgY9uuWE6O8U1ZsC
    dc: temp = 37 C          (58 %), step = 1 C          (667 m%)
 Start ADE Session ID: HgY9uuWE6O8U1ZsC
    dc: temp = 38 C        (58.7 %), step = 1 C          (667 m%)
 Start ADE Session ID: HgY9uuWE6O8U1ZsC
    dc: temp = 39 C        (59.3 %), step = 1 C          (667 m%)
 Start ADE Session ID: HgY9uuWE6O8U1ZsC
    dc: temp = 40 C          (60 %), step = 1 C          (667 m%)
 Start ADE Session ID: HgY9uuWE6O8U1ZsC
    dc: temp = 41 C        (60.7 %), step = 1 C          (667 m%)
 Start ADE Session ID: HgY9uuWE6O8U1ZsC
    dc: temp = 42 C        (61.3 %), step = 1 C          (667 m%)
 Start ADE Session ID: HgY9uuWE6O8U1ZsC
    dc: temp = 43 C          (62 %), step = 1 C          (667 m%)
 Start ADE Session ID: HgY9uuWE6O8U1ZsC
    dc: temp = 44 C        (62.7 %), step = 1 C          (667 m%)
 Start ADE Session ID: HgY9uuWE6O8U1ZsC
    dc: temp = 45 C        (63.3 %), step = 1 C          (667 m%)
 Start ADE Session ID: HgY9uuWE6O8U1ZsC
    dc: temp = 46 C          (64 %), step = 1 C          (667 m%)
 Start ADE Session ID: HgY9uuWE6O8U1ZsC
    dc: temp = 47 C        (64.7 %), step = 1 C          (667 m%)
 Start ADE Session ID: HgY9uuWE6O8U1ZsC
    dc: temp = 48 C        (65.3 %), step = 1 C          (667 m%)
 Start ADE Session ID: HgY9uuWE6O8U1ZsC
    dc: temp = 49 C          (66 %), step = 1 C          (667 m%)
 Start ADE Session ID: HgY9uuWE6O8U1ZsC
    dc: temp = 50 C        (66.7 %), step = 1 C          (667 m%)
 Start ADE Session ID: HgY9uuWE6O8U1ZsC
    dc: temp = 51 C        (67.3 %), step = 1 C          (667 m%)
 Start ADE Session ID: HgY9uuWE6O8U1ZsC
    dc: temp = 52 C          (68 %), step = 1 C          (667 m%)
 Start ADE Session ID: HgY9uuWE6O8U1ZsC
    dc: temp = 53 C        (68.7 %), step = 1 C          (667 m%)
 Start ADE Session ID: HgY9uuWE6O8U1ZsC
    dc: temp = 54 C        (69.3 %), step = 1 C          (667 m%)
 Start ADE Session ID: HgY9uuWE6O8U1ZsC
    dc: temp = 55 C          (70 %), step = 1 C          (667 m%)
 Start ADE Session ID: HgY9uuWE6O8U1ZsC
    dc: temp = 56 C        (70.7 %), step = 1 C          (667 m%)
 Start ADE Session ID: HgY9uuWE6O8U1ZsC
    dc: temp = 57 C        (71.3 %), step = 1 C          (667 m%)
 Start ADE Session ID: HgY9uuWE6O8U1ZsC
    dc: temp = 58 C          (72 %), step = 1 C          (667 m%)
 Start ADE Session ID: HgY9uuWE6O8U1ZsC
    dc: temp = 59 C        (72.7 %), step = 1 C          (667 m%)
 Start ADE Session ID: HgY9uuWE6O8U1ZsC
    dc: temp = 60 C        (73.3 %), step = 1 C          (667 m%)
 Start ADE Session ID: HgY9uuWE6O8U1ZsC
    dc: temp = 61 C          (74 %), step = 1 C          (667 m%)
 Start ADE Session ID: HgY9uuWE6O8U1ZsC
    dc: temp = 62 C        (74.7 %), step = 1 C          (667 m%)
 Start ADE Session ID: HgY9uuWE6O8U1ZsC
    dc: temp = 63 C        (75.3 %), step = 1 C          (667 m%)
 Start ADE Session ID: HgY9uuWE6O8U1ZsC
    dc: temp = 64 C          (76 %), step = 1 C          (667 m%)
 Start ADE Session ID: HgY9uuWE6O8U1ZsC
    dc: temp = 65 C        (76.7 %), step = 1 C          (667 m%)
 Start ADE Session ID: HgY9uuWE6O8U1ZsC
    dc: temp = 66 C        (77.3 %), step = 1 C          (667 m%)
 Start ADE Session ID: HgY9uuWE6O8U1ZsC
    dc: temp = 67 C          (78 %), step = 1 C          (667 m%)
 Start ADE Session ID: HgY9uuWE6O8U1ZsC
    dc: temp = 68 C        (78.7 %), step = 1 C          (667 m%)
 Start ADE Session ID: HgY9uuWE6O8U1ZsC
    dc: temp = 69 C        (79.3 %), step = 1 C          (667 m%)
 Start ADE Session ID: HgY9uuWE6O8U1ZsC
    dc: temp = 70 C          (80 %), step = 1 C          (667 m%)
 Start ADE Session ID: HgY9uuWE6O8U1ZsC
    dc: temp = 71 C        (80.7 %), step = 1 C          (667 m%)
 Start ADE Session ID: HgY9uuWE6O8U1ZsC
    dc: temp = 72 C        (81.3 %), step = 1 C          (667 m%)
 Start ADE Session ID: HgY9uuWE6O8U1ZsC
    dc: temp = 73 C          (82 %), step = 1 C          (667 m%)
 Start ADE Session ID: HgY9uuWE6O8U1ZsC
    dc: temp = 74 C        (82.7 %), step = 1 C          (667 m%)
 Start ADE Session ID: HgY9uuWE6O8U1ZsC
    dc: temp = 75 C        (83.3 %), step = 1 C          (667 m%)
 Start ADE Session ID: HgY9uuWE6O8U1ZsC
    dc: temp = 76 C          (84 %), step = 1 C          (667 m%)
 Start ADE Session ID: HgY9uuWE6O8U1ZsC
    dc: temp = 77 C        (84.7 %), step = 1 C          (667 m%)
 Start ADE Session ID: HgY9uuWE6O8U1ZsC
    dc: temp = 78 C        (85.3 %), step = 1 C          (667 m%)
 Start ADE Session ID: HgY9uuWE6O8U1ZsC
    dc: temp = 79 C          (86 %), step = 1 C          (667 m%)
 Start ADE Session ID: HgY9uuWE6O8U1ZsC
    dc: temp = 80 C        (86.7 %), step = 1 C          (667 m%)
 Start ADE Session ID: HgY9uuWE6O8U1ZsC
    dc: temp = 81 C        (87.3 %), step = 1 C          (667 m%)
 Start ADE Session ID: HgY9uuWE6O8U1ZsC
    dc: temp = 82 C          (88 %), step = 1 C          (667 m%)
 Start ADE Session ID: HgY9uuWE6O8U1ZsC
    dc: temp = 83 C        (88.7 %), step = 1 C          (667 m%)
 Start ADE Session ID: HgY9uuWE6O8U1ZsC
    dc: temp = 84 C        (89.3 %), step = 1 C          (667 m%)
 Start ADE Session ID: HgY9uuWE6O8U1ZsC
    dc: temp = 85 C          (90 %), step = 1 C          (667 m%)
 Start ADE Session ID: HgY9uuWE6O8U1ZsC
    dc: temp = 86 C        (90.7 %), step = 1 C          (667 m%)
 Start ADE Session ID: HgY9uuWE6O8U1ZsC
    dc: temp = 87 C        (91.3 %), step = 1 C          (667 m%)
 Start ADE Session ID: HgY9uuWE6O8U1ZsC
    dc: temp = 88 C          (92 %), step = 1 C          (667 m%)
 Start ADE Session ID: HgY9uuWE6O8U1ZsC
    dc: temp = 89 C        (92.7 %), step = 1 C          (667 m%)
 Start ADE Session ID: HgY9uuWE6O8U1ZsC
    dc: temp = 90 C        (93.3 %), step = 1 C          (667 m%)
 Start ADE Session ID: HgY9uuWE6O8U1ZsC
    dc: temp = 91 C          (94 %), step = 1 C          (667 m%)
 Start ADE Session ID: HgY9uuWE6O8U1ZsC
    dc: temp = 92 C        (94.7 %), step = 1 C          (667 m%)
 Start ADE Session ID: HgY9uuWE6O8U1ZsC
    dc: temp = 93 C        (95.3 %), step = 1 C          (667 m%)
 Start ADE Session ID: HgY9uuWE6O8U1ZsC
    dc: temp = 94 C          (96 %), step = 1 C          (667 m%)
 Start ADE Session ID: HgY9uuWE6O8U1ZsC
    dc: temp = 95 C        (96.7 %), step = 1 C          (667 m%)
 Start ADE Session ID: HgY9uuWE6O8U1ZsC
    dc: temp = 96 C        (97.3 %), step = 1 C          (667 m%)
 Start ADE Session ID: HgY9uuWE6O8U1ZsC
    dc: temp = 97 C          (98 %), step = 1 C          (667 m%)
 Start ADE Session ID: HgY9uuWE6O8U1ZsC
    dc: temp = 98 C        (98.7 %), step = 1 C          (667 m%)
 Start ADE Session ID: HgY9uuWE6O8U1ZsC
    dc: temp = 99 C        (99.3 %), step = 1 C          (667 m%)
 Start ADE Session ID: HgY9uuWE6O8U1ZsC
    dc: temp = 100 C        (100 %), step = 1 C          (667 m%)

Maximum value achieved for any signal of each quantity: 
V: V(vdd!) = 1.2 V
I: I(V1:p) = 53.03 uA
DC simulation time: CPU = 100.905 ms, elapsed = 136.683 ms.
 Start ADE Session ID: HgY9uuWE6O8U1ZsC

Notice from spectre at temp = 100 C during DC analysis `dc'.
    The value of parameter 'temp' has been reset to the original value 27.

Total time required for dc analysis `dc': CPU = 100.943 ms, elapsed = 137.08 ms, util. = 73.6%.
Time accumulated: CPU = 428.008 ms, elapsed = 791.241 ms.
Peak resident memory used = 213 Mbytes.

modelParameter: writing model parameter values to rawfile.

Opening the PSF file ../psf/modelParameter.info ...
element: writing instance parameter values to rawfile.

Opening the PSF file ../psf/element.info ...
outputParameter: writing output parameter values to rawfile.

Opening the PSF file ../psf/outputParameter.info ...
designParamVals: writing netlist parameters to rawfile.

Opening the PSFASCII file ../psf/designParamVals.info ...
primitives: writing primitives to rawfile.

Opening the PSFASCII file ../psf/primitives.info.primitives ...
subckts: writing subcircuits to rawfile.

Opening the PSFASCII file ../psf/subckts.info.subckts ...
Licensing Information:
Lic Summary:
[16:40:50.137522] Cdslmd servers:30000@cadence.cnfm.fr
[16:40:50.661833] Feature usage summary:
[16:40:50.661833] Virtuoso_Multi_mode_Simulation


Aggregate audit (4:40:50 PM, Thur May 7, 2026):
Time used: CPU = 438 ms, elapsed = 827 ms, util. = 52.9%.
Time spent in licensing: elapsed = 369 ms, percentage of total = 44.6%.
Peak memory used = 214 Mbytes.
Simulation started at: 4:40:49 PM, Thur May 7, 2026, ended at: 4:40:50 PM, Thur May 7, 2026, with elapsed time (wall clock): 827 ms.
spectre completes with 0 errors, 6 warnings, and 8 notices.


********* LOG ENDS **************
**                             **
**                             **
********* LOG STARTS ************



Spectre (R) Circuit Simulator
Version 24.1.0.198.isr3 64bit -- 6 Jan 2025
Copyright (C) 1989-2024 Cadence Design Systems, Inc. All rights reserved worldwide. Cadence and Spectre are registered trademarks of Cadence Design Systems, Inc. All others are the property of their respective holders.

Includes RSA BSAFE(R) Cryptographic or Security Protocol Software from RSA Security, Inc.

User: carbou   Host: brahms   HostID: E3843D43   PID: 268151
Memory  available: 25.8647 GB  physical: 33.1539 GB
Linux   : AlmaLinux release 9.7 (Moss Jungle Cat)
CPU Type: Intel(R) Core(TM) i5-9500 CPU @ 3.00GHz
        Socket: Processors [Frequency]
        0:       0 [4223.3],  1 [4279.7],  2 [4299.1],  3 [4232.9],  4 [4292.0]
                 5 [4198.4]
        
System load averages (1min, 5min, 15min) : 20.2 %, 17.3 %, 14.5 %
HPC is enabled


Simulating `input.scs' on brahms at 4:40:53 PM, Thur May 7, 2026 (process id: 268151).
Current working directory: /users/enseig/carbou/Documents/S2/EACN/Projet/cadence_ihp_sg13g2/cds/sim/cours_EACN_SESI/bandgap/maestro/results/maestro/ExplorerRun.0/3/cours_EACN_SESI_bandgap_1/netlist
Command line:
    /users/soft/opus/Linux/SPECTRE-24.10.03.198/tools/bin/spectre -64  \
        input.scs +escchars +log ../psf/spectre.out -format psfxl -raw  \
        ../psf  \
        -I/users/soft/techno/dev/IHP/sg13/SG13G2_618_rev1.3.3/lib/TL_SG13/RLCG/spectre/  \
        +aps +mt +lqtimeout 900 -maxw 5 -maxn 5 -env ade  \
        +adespetkn=0001089D13A302B663E41FB550AF0DF415A679A322D5069144BF588C12F604E07EF416DC01A319B562BB63D37DDB3B9245A36AA17884269655D05FEF48F74F9261D579D15D9175FF349864C67B9974D35BED75CA7A8A74D359EB43E118F874D30EA879D118F874D3349879D118F874D33498102DBC8CD0A75D6400003697  \
        +mts -ahdllibdir  \
        /users/enseig/carbou/Documents/S2/EACN/Projet/cadence_ihp_sg13g2/cds/sim/cours_EACN_SESI/bandgap/maestro/results/maestro/ExplorerRun.0/sharedData/lscsJob17/ahdl/input.ahdlSimDB  \
        +logstatus

Simulation Id: OA29r8aHREkNssUM
Licensing Information:
[16:40:53.291225] Configured Lic search path (24.01-s002): 30000@cadence.cnfm.fr

Licensing Information:
[16:40:54.362274] Periodic Lic check successful

Loading /users/soft/opus/Linux/SPECTRE-24.10.03.198/tools.lnx86/cmi/lib/64bit/5.0/libinfineon_sh.so ...
Loading /users/soft/opus/Linux/SPECTRE-24.10.03.198/tools.lnx86/cmi/lib/64bit/5.0/libphilips_I_sh.so ...
Loading /users/soft/opus/Linux/SPECTRE-24.10.03.198/tools.lnx86/cmi/lib/64bit/5.0/libphilips_sh.so ...
Loading /users/soft/opus/Linux/SPECTRE-24.10.03.198/tools.lnx86/cmi/lib/64bit/5.0/libsparam_sh.so ...
Loading /users/soft/opus/Linux/SPECTRE-24.10.03.198/tools.lnx86/cmi/lib/64bit/5.0/libstmodels_sh.so ...
Reading file:  /users/enseig/carbou/Documents/S2/EACN/Projet/cadence_ihp_sg13g2/cds/sim/cours_EACN_SESI/bandgap/maestro/results/maestro/ExplorerRun.0/3/cours_EACN_SESI_bandgap_1/netlist/input.scs
Reading file:  /users/soft/opus/Linux/SPECTRE-24.10.03.198/tools.lnx86/spectre/etc/configs/spectre.cfg
Reading file:  /users/enseig/carbou/Documents/S2/EACN/Projet/cadence_ihp_sg13g2/cds/sim/cours_EACN_SESI/bandgap/maestro/results/maestro/ExplorerRun.0/3/cours_EACN_SESI_bandgap_1/netlist/ade_e.scs
Reading file:  /users/soft/techno/dev/IHP/sg13/SG13G2_618_rev1.3.3/tech/SG13G2_HBT/VBIC/spectre/SG13G2_cornerBIP_vbic.scs
Reading file:  /users/soft/techno/dev/IHP/sg13/SG13G2_618_rev1.3.3/tech/SG13G2_HBT/VBIC/spectre/SG13G2_hbt_vbic.lib
Reading file:  /users/soft/techno/dev/IHP/sg13/SG13G2_618_rev1.3.3/tech/SG13G2_HBT/VBIC/spectre/SG13G2_hbt_stat.scs
Reading file:  /users/soft/techno/dev/IHP/sg13/SG13G2_618_rev1.3.3/tech/SG13G2_HBT/VBIC/spectre/SG13G2_hbt_mm.scs
Reading file:  /users/soft/techno/dev/IHP/sg13/SG13G2_618_rev1.3.3/tech/SG13_MOS/library/spectreG2/cornerMOSlv_psp.scs
Reading file:  /users/soft/techno/dev/IHP/sg13/SG13G2_618_rev1.3.3/tech/SG13_MOS/library/spectreG2/sg13g2_moslv_psp_stat.scs
Reading file:  /users/soft/techno/dev/IHP/sg13/SG13G2_618_rev1.3.3/tech/SG13_MOS/library/spectreG2/sg13g2_moslv_psp_mod.lib
Reading file:  /users/soft/techno/dev/IHP/sg13/SG13G2_618_rev1.3.3/tech/SG13_MOS/library/spectreG2/sg13g2_moslv_psp_parm.scs
Reading file:  /users/soft/techno/dev/IHP/sg13/SG13G2_618_rev1.3.3/tech/SG13_MOS/library/spectreG2/cornerMOShv_psp.scs
Reading file:  /users/soft/techno/dev/IHP/sg13/SG13G2_618_rev1.3.3/tech/SG13_MOS/library/spectreG2/sg13g2_moshv_psp_stat.scs
Reading file:  /users/soft/techno/dev/IHP/sg13/SG13G2_618_rev1.3.3/tech/SG13_MOS/library/spectreG2/sg13g2_moshv_psp_mod.lib
Reading file:  /users/soft/techno/dev/IHP/sg13/SG13G2_618_rev1.3.3/tech/SG13_MOS/library/spectreG2/sg13g2_moshv_psp_parm.scs
Reading file:  /users/soft/techno/dev/IHP/sg13/SG13G2_618_rev1.3.3/tech/SG13_MOS/library/spectreG2/sg13g2_svaricaphv_mosvar_mod.lib
Reading file:  /users/soft/techno/dev/IHP/sg13/SG13G2_618_rev1.3.3/tech/SG13G2_PASSIVES/spectre/SG13_cornerRES.scs
Reading file:  /users/soft/techno/dev/IHP/sg13/SG13G2_618_rev1.3.3/tech/SG13G2_PASSIVES/spectre/SG13_res_mm.scs
Reading file:  /users/soft/techno/dev/IHP/sg13/SG13G2_618_rev1.3.3/tech/SG13G2_PASSIVES/spectre/SG13_res_stat.scs
Reading file:  /users/soft/techno/dev/IHP/sg13/SG13G2_618_rev1.3.3/tech/SG13G2_PASSIVES/spectre/SG13_res.lib
Reading file:  /users/soft/techno/dev/IHP/sg13/SG13G2_618_rev1.3.3/tech/SG13G2_PASSIVES/spectre/SG13_cornerCAP.scs
Reading file:  /users/soft/techno/dev/IHP/sg13/SG13G2_618_rev1.3.3/tech/SG13G2_PASSIVES/spectre/SG13_cap_mm.scs
Reading file:  /users/soft/techno/dev/IHP/sg13/SG13G2_618_rev1.3.3/tech/SG13G2_PASSIVES/spectre/SG13_cap_stat.scs
Reading file:  /users/soft/techno/dev/IHP/sg13/SG13G2_618_rev1.3.3/tech/SG13G2_PASSIVES/spectre/SG13_cap.lib
Reading file:  /users/soft/techno/dev/IHP/sg13/SG13G2_618_rev1.3.3/tech/SG13G2_PASSIVES/spectre/sg13g2_dschottky_nbl1_corner.scs
Reading file:  /users/soft/techno/dev/IHP/sg13/SG13G2_618_rev1.3.3/tech/SG13G2_PASSIVES/spectre/sg13g2_dschottky_nbl1_stat.scs
Reading file:  /users/soft/techno/dev/IHP/sg13/SG13G2_618_rev1.3.3/tech/SG13G2_PASSIVES/spectre/sg13g2_dschottky_nbl1_mod.lib
Reading file:  /users/soft/techno/dev/IHP/sg13/SG13G2_618_rev1.3.3/tech/SG13G2_PASSIVES/spectre/SG13_diodes.lib
Reading file:  /users/soft/techno/dev/IHP/sg13/SG13G2_618_rev1.3.3/tech/SG13_ESD/spectre/SG13_esd.lib
Reading file:  /users/soft/techno/dev/IHP/sg13/SG13G2_618_rev1.3.3/tech/SG13_PASSIVES/spectre/SG13_cornerTSV.scs
Reading file:  /users/soft/techno/dev/IHP/sg13/SG13G2_618_rev1.3.3/tech/SG13_PASSIVES/spectre/SG13_paramsTSV.scs
Reading file:  /users/soft/techno/dev/IHP/sg13/SG13G2_618_rev1.3.3/tech/SG13_PASSIVES/spectre/SG13_tsv.lib
Reading file:  /users/soft/techno/dev/IHP/sg13/SG13G2_618_rev1.3.3/tech/SG13_PASSIVES/spectre/SG13_bondpad.lib

Notice from spectre in `bondpad_model', during circuit read-in.
    "/users/soft/techno/dev/IHP/sg13/SG13G2_618_rev1.3.3/tech/SG13_PASSIVES/spectre/SG13_bondpad.lib" 13: Subcircuit 'bondpad_model' is empty.

Reading file:  /users/enseig/galayko/cours_EACN/projet/cadence_ihp_sg13g2/cds/allFunc.scs
Reading link:  /users/enseig/carbou/Documents/S2/EACN/Projet/cadence_ihp_sg13g2/cds/sim/cours_EACN_SESI/bandgap/maestro/results/maestro/ExplorerRun.0/3/cours_EACN_SESI_bandgap_1/netlist/netlist
Reading file:  /users/enseig/carbou/Documents/S2/EACN/Projet/cadence_ihp_sg13g2/cds/sim/cours_EACN_SESI/bandgap/maestro/results/maestro/ExplorerRun.0/psf/cours_EACN_SESI_bandgap_1/netlist/netlist
Time for NDB Parsing: CPU = 92.893 ms, elapsed = 963.437 ms.
Time accumulated: CPU = 244.37 ms, elapsed = 963.438 ms.
Peak resident memory used = 190 Mbytes.

Time for Elaboration: CPU = 33.204 ms, elapsed = 35.2759 ms.
Time accumulated: CPU = 277.787 ms, elapsed = 998.926 ms.
Peak resident memory used = 199 Mbytes.

 Start ADE Session ID: OA29r8aHREkNssUM


Warning from spectre during hierarchy flattening.
    WARNING (SPECTRE-8527): There are some nodes and instances removed from the netlist topology check. Check the circuit and correct the topology. Or use preserve_inst to keep them if necessary.

***********************************************
  Total removed instances 3 ( dangling 3, terminals connected together 0)  

Warning from spectre during hierarchy flattening.
    WARNING (SPECTRE-8529): Dangling instance. R4 is removed.
    WARNING (SPECTRE-8529): Dangling instance. D9_turbo_m4 is removed.
    WARNING (SPECTRE-8529): Dangling instance. D5 is removed.


  Total removed nodes 2 ( dangling nodes 2, floating nodes 0 )

Warning from spectre during hierarchy flattening.
    WARNING (SPECTRE-8530): Dangling node. net12 is removed.
    WARNING (SPECTRE-8530): Dangling node. net7 is removed.

***********************************************
Time for EDB Visiting: CPU = 1.211 ms, elapsed = 5.07116 ms.
Time accumulated: CPU = 279.12 ms, elapsed = 1.00412 s.
Peak resident memory used = 200 Mbytes.


Notice from spectre during topology check.
    Only one connection to node `sub!'.
Notice from spectre during initial setup.
    Multithreading is disabled due to the size of the design being too small.


Netlist title:
        // Point Netlist Generated on: May  7 16:40:46 2026


Global user options:
         psfversion = 1.4.0
            vabstol = 1e-06
            iabstol = 1e-12
               temp = 27
               gmin = 1e-12
             rforce = 1
           maxnotes = 5
           maxwarns = 5
             digits = 5
               cols = 80
             pivrel = 0.001
           sensfile = ../psf/sens.output
     checklimitdest = sqldb
      ignorezerovar = yes
               save = allpub
           currents = all
     subcktprobelvl = 5
       saveahdlvars = all
             reltol = 0.001
               tnom = 27
             scalem = 1
              scale = 1

Scoped user options:

Circuit inventory:
              nodes 14
                bjt 10    
          pspnqs103 3     
           resistor 5     
               vcvs 1     
            vsource 6     

Analysis and control statement inventory:
                 dc 2     
               info 7     

Output statements:
             .probe 0     
           .measure 0     
               save 1     

Design checks inventory:
          paramtest 13    


Notice from spectre during initial setup.
    Protected devices exist and are not included in the circuit inventory.
    3 vsources are shorted because their absolute value is less than or equal to 'vabsshort'.
    APS enabled.

Time for parsing: CPU = 3.046 ms, elapsed = 22.1601 ms.
Time accumulated: CPU = 282.304 ms, elapsed = 1.02778 s.
Peak resident memory used = 204 Mbytes.

~~~~~~~~~~~~~~~~~~~~~~
Pre-Simulation Summary
~~~~~~~~~~~~~~~~~~~~~~
   -   (APS) Multi-threading. The recommended number of threads is 1, consider adding +mt=1 on command line.
~~~~~~~~~~~~~~~~~~~~~~

******************
DC Analysis `dcOp'
******************

Opening the PSF file ../psf/dcOp.dc ...
Important parameter values:
    reltol = 1e-03
    abstol(V) = 1 uV
    abstol(I) = 1 pA
    temp = 27 C
    tnom = 27 C
    tempeffects = all
    gmindc = 1 pS
    rabsshort = 1 mOhm

Maximum value achieved for any signal of each quantity: 
V: V(vdd!) = 1.2 V
I: I(V1:p) = 49.35 uA
Convergence achieved in 20 iterations.
DC simulation time: CPU = 2.96 ms, elapsed = 7.89499 ms.
Total time required for dc analysis `dcOp': CPU = 3.019 ms, elapsed = 8.3282 ms, util. = 36.3%.
Time accumulated: CPU = 296.998 ms, elapsed = 1.04916 s.
Peak resident memory used = 208 Mbytes.

dcOpInfo: writing operating point information to rawfile.

Opening the PSF file ../psf/dcOpInfo.info ...
 Start ADE Session ID: OA29r8aHREkNssUM

*****************************************
DC Analysis `dc': temp = (-50 C -> 100 C)
*****************************************

Opening the PSF file ../psf/dc.dc ...
Important parameter values:
    reltol = 1e-03
    abstol(V) = 1 uV
    abstol(I) = 1 pA
    temp = -50 C
    tnom = 27 C
    tempeffects = all
    gmindc = 1 pS
    rabsshort = 1 mOhm
 Start ADE Session ID: OA29r8aHREkNssUM
 Start ADE Session ID: OA29r8aHREkNssUM
 Start ADE Session ID: OA29r8aHREkNssUM
 Start ADE Session ID: OA29r8aHREkNssUM
    dc: temp = -46 C       (2.67 %), step = 1 C          (667 m%)
 Start ADE Session ID: OA29r8aHREkNssUM
    dc: temp = -45 C       (3.33 %), step = 1 C          (667 m%)
 Start ADE Session ID: OA29r8aHREkNssUM
    dc: temp = -44 C          (4 %), step = 1 C          (667 m%)
 Start ADE Session ID: OA29r8aHREkNssUM
    dc: temp = -43 C       (4.67 %), step = 1 C          (667 m%)
 Start ADE Session ID: OA29r8aHREkNssUM
    dc: temp = -42 C       (5.33 %), step = 1 C          (667 m%)
 Start ADE Session ID: OA29r8aHREkNssUM
    dc: temp = -41 C          (6 %), step = 1 C          (667 m%)
 Start ADE Session ID: OA29r8aHREkNssUM
    dc: temp = -40 C       (6.67 %), step = 1 C          (667 m%)
 Start ADE Session ID: OA29r8aHREkNssUM
    dc: temp = -39 C       (7.33 %), step = 1 C          (667 m%)
 Start ADE Session ID: OA29r8aHREkNssUM
    dc: temp = -38 C          (8 %), step = 1 C          (667 m%)
 Start ADE Session ID: OA29r8aHREkNssUM
    dc: temp = -37 C       (8.67 %), step = 1 C          (667 m%)
 Start ADE Session ID: OA29r8aHREkNssUM
    dc: temp = -36 C       (9.33 %), step = 1 C          (667 m%)
 Start ADE Session ID: OA29r8aHREkNssUM
    dc: temp = -35 C         (10 %), step = 1 C          (667 m%)
 Start ADE Session ID: OA29r8aHREkNssUM
    dc: temp = -34 C       (10.7 %), step = 1 C          (667 m%)
 Start ADE Session ID: OA29r8aHREkNssUM
    dc: temp = -33 C       (11.3 %), step = 1 C          (667 m%)
 Start ADE Session ID: OA29r8aHREkNssUM
    dc: temp = -32 C         (12 %), step = 1 C          (667 m%)
 Start ADE Session ID: OA29r8aHREkNssUM
    dc: temp = -31 C       (12.7 %), step = 1 C          (667 m%)
 Start ADE Session ID: OA29r8aHREkNssUM
    dc: temp = -30 C       (13.3 %), step = 1 C          (667 m%)
 Start ADE Session ID: OA29r8aHREkNssUM
    dc: temp = -29 C         (14 %), step = 1 C          (667 m%)
 Start ADE Session ID: OA29r8aHREkNssUM
    dc: temp = -28 C       (14.7 %), step = 1 C          (667 m%)
 Start ADE Session ID: OA29r8aHREkNssUM
    dc: temp = -27 C       (15.3 %), step = 1 C          (667 m%)
 Start ADE Session ID: OA29r8aHREkNssUM
    dc: temp = -26 C         (16 %), step = 1 C          (667 m%)
 Start ADE Session ID: OA29r8aHREkNssUM
    dc: temp = -25 C       (16.7 %), step = 1 C          (667 m%)
 Start ADE Session ID: OA29r8aHREkNssUM
    dc: temp = -24 C       (17.3 %), step = 1 C          (667 m%)
 Start ADE Session ID: OA29r8aHREkNssUM
    dc: temp = -23 C         (18 %), step = 1 C          (667 m%)
 Start ADE Session ID: OA29r8aHREkNssUM
    dc: temp = -22 C       (18.7 %), step = 1 C          (667 m%)
 Start ADE Session ID: OA29r8aHREkNssUM
    dc: temp = -21 C       (19.3 %), step = 1 C          (667 m%)
 Start ADE Session ID: OA29r8aHREkNssUM
    dc: temp = -20 C         (20 %), step = 1 C          (667 m%)
 Start ADE Session ID: OA29r8aHREkNssUM
    dc: temp = -19 C       (20.7 %), step = 1 C          (667 m%)
 Start ADE Session ID: OA29r8aHREkNssUM
    dc: temp = -18 C       (21.3 %), step = 1 C          (667 m%)
 Start ADE Session ID: OA29r8aHREkNssUM
    dc: temp = -17 C         (22 %), step = 1 C          (667 m%)
 Start ADE Session ID: OA29r8aHREkNssUM
    dc: temp = -16 C       (22.7 %), step = 1 C          (667 m%)
 Start ADE Session ID: OA29r8aHREkNssUM
    dc: temp = -15 C       (23.3 %), step = 1 C          (667 m%)
 Start ADE Session ID: OA29r8aHREkNssUM
    dc: temp = -14 C         (24 %), step = 1 C          (667 m%)
 Start ADE Session ID: OA29r8aHREkNssUM
    dc: temp = -13 C       (24.7 %), step = 1 C          (667 m%)
 Start ADE Session ID: OA29r8aHREkNssUM
    dc: temp = -12 C       (25.3 %), step = 1 C          (667 m%)
 Start ADE Session ID: OA29r8aHREkNssUM
    dc: temp = -11 C         (26 %), step = 1 C          (667 m%)
 Start ADE Session ID: OA29r8aHREkNssUM
    dc: temp = -10 C       (26.7 %), step = 1 C          (667 m%)
 Start ADE Session ID: OA29r8aHREkNssUM
    dc: temp = -9 C        (27.3 %), step = 1 C          (667 m%)
 Start ADE Session ID: OA29r8aHREkNssUM
    dc: temp = -8 C          (28 %), step = 1 C          (667 m%)
 Start ADE Session ID: OA29r8aHREkNssUM
    dc: temp = -7 C        (28.7 %), step = 1 C          (667 m%)
 Start ADE Session ID: OA29r8aHREkNssUM
    dc: temp = -6 C        (29.3 %), step = 1 C          (667 m%)
 Start ADE Session ID: OA29r8aHREkNssUM
    dc: temp = -5 C          (30 %), step = 1 C          (667 m%)
 Start ADE Session ID: OA29r8aHREkNssUM
    dc: temp = -4 C        (30.7 %), step = 1 C          (667 m%)
 Start ADE Session ID: OA29r8aHREkNssUM
    dc: temp = -3 C        (31.3 %), step = 1 C          (667 m%)
 Start ADE Session ID: OA29r8aHREkNssUM
    dc: temp = -2 C          (32 %), step = 1 C          (667 m%)
 Start ADE Session ID: OA29r8aHREkNssUM
    dc: temp = -1 C        (32.7 %), step = 1 C          (667 m%)
 Start ADE Session ID: OA29r8aHREkNssUM
    dc: temp = 0 C         (33.3 %), step = 1 C          (667 m%)
 Start ADE Session ID: OA29r8aHREkNssUM
    dc: temp = 1 C           (34 %), step = 1 C          (667 m%)
 Start ADE Session ID: OA29r8aHREkNssUM
    dc: temp = 2 C         (34.7 %), step = 1 C          (667 m%)
 Start ADE Session ID: OA29r8aHREkNssUM
    dc: temp = 3 C         (35.3 %), step = 1 C          (667 m%)
 Start ADE Session ID: OA29r8aHREkNssUM
    dc: temp = 4 C           (36 %), step = 1 C          (667 m%)
 Start ADE Session ID: OA29r8aHREkNssUM
    dc: temp = 5 C         (36.7 %), step = 1 C          (667 m%)
 Start ADE Session ID: OA29r8aHREkNssUM
    dc: temp = 6 C         (37.3 %), step = 1 C          (667 m%)
 Start ADE Session ID: OA29r8aHREkNssUM
    dc: temp = 7 C           (38 %), step = 1 C          (667 m%)
 Start ADE Session ID: OA29r8aHREkNssUM
    dc: temp = 8 C         (38.7 %), step = 1 C          (667 m%)
 Start ADE Session ID: OA29r8aHREkNssUM
    dc: temp = 9 C         (39.3 %), step = 1 C          (667 m%)
 Start ADE Session ID: OA29r8aHREkNssUM
    dc: temp = 10 C          (40 %), step = 1 C          (667 m%)
 Start ADE Session ID: OA29r8aHREkNssUM
    dc: temp = 11 C        (40.7 %), step = 1 C          (667 m%)
 Start ADE Session ID: OA29r8aHREkNssUM
    dc: temp = 12 C        (41.3 %), step = 1 C          (667 m%)
 Start ADE Session ID: OA29r8aHREkNssUM
    dc: temp = 13 C          (42 %), step = 1 C          (667 m%)
 Start ADE Session ID: OA29r8aHREkNssUM
    dc: temp = 14 C        (42.7 %), step = 1 C          (667 m%)
 Start ADE Session ID: OA29r8aHREkNssUM
    dc: temp = 15 C        (43.3 %), step = 1 C          (667 m%)
 Start ADE Session ID: OA29r8aHREkNssUM
    dc: temp = 16 C          (44 %), step = 1 C          (667 m%)
 Start ADE Session ID: OA29r8aHREkNssUM
    dc: temp = 17 C        (44.7 %), step = 1 C          (667 m%)
 Start ADE Session ID: OA29r8aHREkNssUM
    dc: temp = 18 C        (45.3 %), step = 1 C          (667 m%)
 Start ADE Session ID: OA29r8aHREkNssUM
    dc: temp = 19 C          (46 %), step = 1 C          (667 m%)
 Start ADE Session ID: OA29r8aHREkNssUM
    dc: temp = 20 C        (46.7 %), step = 1 C          (667 m%)
 Start ADE Session ID: OA29r8aHREkNssUM
    dc: temp = 21 C        (47.3 %), step = 1 C          (667 m%)
 Start ADE Session ID: OA29r8aHREkNssUM
    dc: temp = 22 C          (48 %), step = 1 C          (667 m%)
 Start ADE Session ID: OA29r8aHREkNssUM
    dc: temp = 23 C        (48.7 %), step = 1 C          (667 m%)
 Start ADE Session ID: OA29r8aHREkNssUM
    dc: temp = 24 C        (49.3 %), step = 1 C          (667 m%)
 Start ADE Session ID: OA29r8aHREkNssUM
    dc: temp = 25 C          (50 %), step = 1 C          (667 m%)
 Start ADE Session ID: OA29r8aHREkNssUM
    dc: temp = 26 C        (50.7 %), step = 1 C          (667 m%)
 Start ADE Session ID: OA29r8aHREkNssUM
    dc: temp = 27 C        (51.3 %), step = 1 C          (667 m%)
 Start ADE Session ID: OA29r8aHREkNssUM
    dc: temp = 28 C          (52 %), step = 1 C          (667 m%)
 Start ADE Session ID: OA29r8aHREkNssUM
    dc: temp = 29 C        (52.7 %), step = 1 C          (667 m%)
 Start ADE Session ID: OA29r8aHREkNssUM
    dc: temp = 30 C        (53.3 %), step = 1 C          (667 m%)
 Start ADE Session ID: OA29r8aHREkNssUM
    dc: temp = 31 C          (54 %), step = 1 C          (667 m%)
 Start ADE Session ID: OA29r8aHREkNssUM
    dc: temp = 32 C        (54.7 %), step = 1 C          (667 m%)
 Start ADE Session ID: OA29r8aHREkNssUM
    dc: temp = 33 C        (55.3 %), step = 1 C          (667 m%)
 Start ADE Session ID: OA29r8aHREkNssUM
    dc: temp = 34 C          (56 %), step = 1 C          (667 m%)
 Start ADE Session ID: OA29r8aHREkNssUM
    dc: temp = 35 C        (56.7 %), step = 1 C          (667 m%)
 Start ADE Session ID: OA29r8aHREkNssUM
    dc: temp = 36 C        (57.3 %), step = 1 C          (667 m%)
 Start ADE Session ID: OA29r8aHREkNssUM
    dc: temp = 37 C          (58 %), step = 1 C          (667 m%)
 Start ADE Session ID: OA29r8aHREkNssUM
[...]
      ignorezerovar = yes
               save = allpub
           currents = all
     subcktprobelvl = 5
       saveahdlvars = all
             reltol = 0.001
               tnom = 27
             scalem = 1
              scale = 1

Scoped user options:

Circuit inventory:
              nodes 14
                bjt 10    
          pspnqs103 3     
           resistor 5     
               vcvs 1     
            vsource 6     

Analysis and control statement inventory:
                 dc 2     
               info 7     

Output statements:
             .probe 0     
           .measure 0     
               save 1     

Design checks inventory:
          paramtest 13    


Notice from spectre during initial setup.
    Protected devices exist and are not included in the circuit inventory.
    3 vsources are shorted because their absolute value is less than or equal to 'vabsshort'.
    APS enabled.

Time for parsing: CPU = 2.844 ms, elapsed = 18.8091 ms.
Time accumulated: CPU = 300.094 ms, elapsed = 567.439 ms.
Peak resident memory used = 202 Mbytes.

~~~~~~~~~~~~~~~~~~~~~~
Pre-Simulation Summary
~~~~~~~~~~~~~~~~~~~~~~
   -   (APS) Multi-threading. The recommended number of threads is 1, consider adding +mt=1 on command line.
~~~~~~~~~~~~~~~~~~~~~~

******************
DC Analysis `dcOp'
******************

Opening the PSF file ../psf/dcOp.dc ...
Important parameter values:
    reltol = 1e-03
    abstol(V) = 1 uV
    abstol(I) = 1 pA
    temp = 27 C
    tnom = 27 C
    tempeffects = all
    gmindc = 1 pS
    rabsshort = 1 mOhm

Maximum value achieved for any signal of each quantity: 
V: V(vdd!) = 1.2 V
I: I(V1:p) = 46.42 uA
Convergence achieved in 8 iterations.
DC simulation time: CPU = 2.693 ms, elapsed = 7.15804 ms.
Total time required for dc analysis `dcOp': CPU = 2.761 ms, elapsed = 7.617 ms, util. = 36.2%.
Time accumulated: CPU = 312.999 ms, elapsed = 586.818 ms.
Peak resident memory used = 206 Mbytes.

dcOpInfo: writing operating point information to rawfile.

Opening the PSF file ../psf/dcOpInfo.info ...
 Start ADE Session ID: dcaHmIRbBxj9romh

*****************************************
DC Analysis `dc': temp = (-50 C -> 100 C)
*****************************************

Opening the PSF file ../psf/dc.dc ...
Important parameter values:
    reltol = 1e-03
    abstol(V) = 1 uV
    abstol(I) = 1 pA
    temp = -50 C
    tnom = 27 C
    tempeffects = all
    gmindc = 1 pS
    rabsshort = 1 mOhm
 Start ADE Session ID: dcaHmIRbBxj9romh
 Start ADE Session ID: dcaHmIRbBxj9romh
 Start ADE Session ID: dcaHmIRbBxj9romh
 Start ADE Session ID: dcaHmIRbBxj9romh
    dc: temp = -46 C       (2.67 %), step = 1 C          (667 m%)
 Start ADE Session ID: dcaHmIRbBxj9romh
    dc: temp = -45 C       (3.33 %), step = 1 C          (667 m%)
 Start ADE Session ID: dcaHmIRbBxj9romh
    dc: temp = -44 C          (4 %), step = 1 C          (667 m%)
 Start ADE Session ID: dcaHmIRbBxj9romh
    dc: temp = -43 C       (4.67 %), step = 1 C          (667 m%)
 Start ADE Session ID: dcaHmIRbBxj9romh
    dc: temp = -42 C       (5.33 %), step = 1 C          (667 m%)
 Start ADE Session ID: dcaHmIRbBxj9romh
    dc: temp = -41 C          (6 %), step = 1 C          (667 m%)
 Start ADE Session ID: dcaHmIRbBxj9romh
    dc: temp = -40 C       (6.67 %), step = 1 C          (667 m%)
 Start ADE Session ID: dcaHmIRbBxj9romh
    dc: temp = -39 C       (7.33 %), step = 1 C          (667 m%)
 Start ADE Session ID: dcaHmIRbBxj9romh
    dc: temp = -38 C          (8 %), step = 1 C          (667 m%)
 Start ADE Session ID: dcaHmIRbBxj9romh
    dc: temp = -37 C       (8.67 %), step = 1 C          (667 m%)
 Start ADE Session ID: dcaHmIRbBxj9romh
    dc: temp = -36 C       (9.33 %), step = 1 C          (667 m%)
 Start ADE Session ID: dcaHmIRbBxj9romh
    dc: temp = -35 C         (10 %), step = 1 C          (667 m%)
 Start ADE Session ID: dcaHmIRbBxj9romh
    dc: temp = -34 C       (10.7 %), step = 1 C          (667 m%)
 Start ADE Session ID: dcaHmIRbBxj9romh
    dc: temp = -33 C       (11.3 %), step = 1 C          (667 m%)
 Start ADE Session ID: dcaHmIRbBxj9romh
    dc: temp = -32 C         (12 %), step = 1 C          (667 m%)
 Start ADE Session ID: dcaHmIRbBxj9romh
    dc: temp = -31 C       (12.7 %), step = 1 C          (667 m%)
 Start ADE Session ID: dcaHmIRbBxj9romh
    dc: temp = -30 C       (13.3 %), step = 1 C          (667 m%)
 Start ADE Session ID: dcaHmIRbBxj9romh
    dc: temp = -29 C         (14 %), step = 1 C          (667 m%)
 Start ADE Session ID: dcaHmIRbBxj9romh
    dc: temp = -28 C       (14.7 %), step = 1 C          (667 m%)
 Start ADE Session ID: dcaHmIRbBxj9romh
    dc: temp = -27 C       (15.3 %), step = 1 C          (667 m%)
 Start ADE Session ID: dcaHmIRbBxj9romh
    dc: temp = -26 C         (16 %), step = 1 C          (667 m%)
 Start ADE Session ID: dcaHmIRbBxj9romh
    dc: temp = -25 C       (16.7 %), step = 1 C          (667 m%)
 Start ADE Session ID: dcaHmIRbBxj9romh
    dc: temp = -24 C       (17.3 %), step = 1 C          (667 m%)
 Start ADE Session ID: dcaHmIRbBxj9romh
    dc: temp = -23 C         (18 %), step = 1 C          (667 m%)
 Start ADE Session ID: dcaHmIRbBxj9romh
    dc: temp = -22 C       (18.7 %), step = 1 C          (667 m%)
 Start ADE Session ID: dcaHmIRbBxj9romh
    dc: temp = -21 C       (19.3 %), step = 1 C          (667 m%)
 Start ADE Session ID: dcaHmIRbBxj9romh
    dc: temp = -20 C         (20 %), step = 1 C          (667 m%)
 Start ADE Session ID: dcaHmIRbBxj9romh
    dc: temp = -19 C       (20.7 %), step = 1 C          (667 m%)
 Start ADE Session ID: dcaHmIRbBxj9romh
    dc: temp = -18 C       (21.3 %), step = 1 C          (667 m%)
 Start ADE Session ID: dcaHmIRbBxj9romh
    dc: temp = -17 C         (22 %), step = 1 C          (667 m%)
 Start ADE Session ID: dcaHmIRbBxj9romh
    dc: temp = -16 C       (22.7 %), step = 1 C          (667 m%)
 Start ADE Session ID: dcaHmIRbBxj9romh
    dc: temp = -15 C       (23.3 %), step = 1 C          (667 m%)
 Start ADE Session ID: dcaHmIRbBxj9romh
    dc: temp = -14 C         (24 %), step = 1 C          (667 m%)
 Start ADE Session ID: dcaHmIRbBxj9romh
    dc: temp = -13 C       (24.7 %), step = 1 C          (667 m%)
 Start ADE Session ID: dcaHmIRbBxj9romh
    dc: temp = -12 C       (25.3 %), step = 1 C          (667 m%)
 Start ADE Session ID: dcaHmIRbBxj9romh
    dc: temp = -11 C         (26 %), step = 1 C          (667 m%)
 Start ADE Session ID: dcaHmIRbBxj9romh
    dc: temp = -10 C       (26.7 %), step = 1 C          (667 m%)
 Start ADE Session ID: dcaHmIRbBxj9romh
    dc: temp = -9 C        (27.3 %), step = 1 C          (667 m%)
 Start ADE Session ID: dcaHmIRbBxj9romh
    dc: temp = -8 C          (28 %), step = 1 C          (667 m%)
 Start ADE Session ID: dcaHmIRbBxj9romh
    dc: temp = -7 C        (28.7 %), step = 1 C          (667 m%)
 Start ADE Session ID: dcaHmIRbBxj9romh
    dc: temp = -6 C        (29.3 %), step = 1 C          (667 m%)
 Start ADE Session ID: dcaHmIRbBxj9romh
    dc: temp = -5 C          (30 %), step = 1 C          (667 m%)
 Start ADE Session ID: dcaHmIRbBxj9romh
    dc: temp = -4 C        (30.7 %), step = 1 C          (667 m%)
 Start ADE Session ID: dcaHmIRbBxj9romh
    dc: temp = -3 C        (31.3 %), step = 1 C          (667 m%)
 Start ADE Session ID: dcaHmIRbBxj9romh
    dc: temp = -2 C          (32 %), step = 1 C          (667 m%)
 Start ADE Session ID: dcaHmIRbBxj9romh
    dc: temp = -1 C        (32.7 %), step = 1 C          (667 m%)
 Start ADE Session ID: dcaHmIRbBxj9romh
    dc: temp = 0 C         (33.3 %), step = 1 C          (667 m%)
 Start ADE Session ID: dcaHmIRbBxj9romh
    dc: temp = 1 C           (34 %), step = 1 C          (667 m%)
 Start ADE Session ID: dcaHmIRbBxj9romh
    dc: temp = 2 C         (34.7 %), step = 1 C          (667 m%)
 Start ADE Session ID: dcaHmIRbBxj9romh
    dc: temp = 3 C         (35.3 %), step = 1 C          (667 m%)
 Start ADE Session ID: dcaHmIRbBxj9romh
    dc: temp = 4 C           (36 %), step = 1 C          (667 m%)
 Start ADE Session ID: dcaHmIRbBxj9romh
    dc: temp = 5 C         (36.7 %), step = 1 C          (667 m%)
 Start ADE Session ID: dcaHmIRbBxj9romh
    dc: temp = 6 C         (37.3 %), step = 1 C          (667 m%)
 Start ADE Session ID: dcaHmIRbBxj9romh
    dc: temp = 7 C           (38 %), step = 1 C          (667 m%)
 Start ADE Session ID: dcaHmIRbBxj9romh
    dc: temp = 8 C         (38.7 %), step = 1 C          (667 m%)
 Start ADE Session ID: dcaHmIRbBxj9romh
    dc: temp = 9 C         (39.3 %), step = 1 C          (667 m%)
 Start ADE Session ID: dcaHmIRbBxj9romh
    dc: temp = 10 C          (40 %), step = 1 C          (667 m%)
 Start ADE Session ID: dcaHmIRbBxj9romh
    dc: temp = 11 C        (40.7 %), step = 1 C          (667 m%)
 Start ADE Session ID: dcaHmIRbBxj9romh
    dc: temp = 12 C        (41.3 %), step = 1 C          (667 m%)
 Start ADE Session ID: dcaHmIRbBxj9romh
    dc: temp = 13 C          (42 %), step = 1 C          (667 m%)
 Start ADE Session ID: dcaHmIRbBxj9romh
    dc: temp = 14 C        (42.7 %), step = 1 C          (667 m%)
 Start ADE Session ID: dcaHmIRbBxj9romh
    dc: temp = 15 C        (43.3 %), step = 1 C          (667 m%)
 Start ADE Session ID: dcaHmIRbBxj9romh
    dc: temp = 16 C          (44 %), step = 1 C          (667 m%)
 Start ADE Session ID: dcaHmIRbBxj9romh
    dc: temp = 17 C        (44.7 %), step = 1 C          (667 m%)
 Start ADE Session ID: dcaHmIRbBxj9romh
    dc: temp = 18 C        (45.3 %), step = 1 C          (667 m%)
 Start ADE Session ID: dcaHmIRbBxj9romh
    dc: temp = 19 C          (46 %), step = 1 C          (667 m%)
 Start ADE Session ID: dcaHmIRbBxj9romh
    dc: temp = 20 C        (46.7 %), step = 1 C          (667 m%)
 Start ADE Session ID: dcaHmIRbBxj9romh
    dc: temp = 21 C        (47.3 %), step = 1 C          (667 m%)
 Start ADE Session ID: dcaHmIRbBxj9romh
    dc: temp = 22 C          (48 %), step = 1 C          (667 m%)
 Start ADE Session ID: dcaHmIRbBxj9romh
    dc: temp = 23 C        (48.7 %), step = 1 C          (667 m%)
 Start ADE Session ID: dcaHmIRbBxj9romh
    dc: temp = 24 C        (49.3 %), step = 1 C          (667 m%)
 Start ADE Session ID: dcaHmIRbBxj9romh
    dc: temp = 25 C          (50 %), step = 1 C          (667 m%)
 Start ADE Session ID: dcaHmIRbBxj9romh
    dc: temp = 26 C        (50.7 %), step = 1 C          (667 m%)
 Start ADE Session ID: dcaHmIRbBxj9romh
    dc: temp = 27 C        (51.3 %), step = 1 C          (667 m%)
 Start ADE Session ID: dcaHmIRbBxj9romh
    dc: temp = 28 C          (52 %), step = 1 C          (667 m%)
 Start ADE Session ID: dcaHmIRbBxj9romh
    dc: temp = 29 C        (52.7 %), step = 1 C          (667 m%)
 Start ADE Session ID: dcaHmIRbBxj9romh
    dc: temp = 30 C        (53.3 %), step = 1 C          (667 m%)
 Start ADE Session ID: dcaHmIRbBxj9romh
    dc: temp = 31 C          (54 %), step = 1 C          (667 m%)
 Start ADE Session ID: dcaHmIRbBxj9romh
    dc: temp = 32 C        (54.7 %), step = 1 C          (667 m%)
 Start ADE Session ID: dcaHmIRbBxj9romh
    dc: temp = 33 C        (55.3 %), step = 1 C          (667 m%)
 Start ADE Session ID: dcaHmIRbBxj9romh
    dc: temp = 34 C          (56 %), step = 1 C          (667 m%)
 Start ADE Session ID: dcaHmIRbBxj9romh
    dc: temp = 35 C        (56.7 %), step = 1 C          (667 m%)
 Start ADE Session ID: dcaHmIRbBxj9romh
    dc: temp = 36 C        (57.3 %), step = 1 C          (667 m%)
 Start ADE Session ID: dcaHmIRbBxj9romh
    dc: temp = 37 C          (58 %), step = 1 C          (667 m%)
 Start ADE Session ID: dcaHmIRbBxj9romh
    dc: temp = 38 C        (58.7 %), step = 1 C          (667 m%)
 Start ADE Session ID: dcaHmIRbBxj9romh
    dc: temp = 39 C        (59.3 %), step = 1 C          (667 m%)
 Start ADE Session ID: dcaHmIRbBxj9romh
    dc: temp = 40 C          (60 %), step = 1 C          (667 m%)
 Start ADE Session ID: dcaHmIRbBxj9romh
    dc: temp = 41 C        (60.7 %), step = 1 C          (667 m%)
 Start ADE Session ID: dcaHmIRbBxj9romh
    dc: temp = 42 C        (61.3 %), step = 1 C          (667 m%)
 Start ADE Session ID: dcaHmIRbBxj9romh
    dc: temp = 43 C          (62 %), step = 1 C          (667 m%)
 Start ADE Session ID: dcaHmIRbBxj9romh
    dc: temp = 44 C        (62.7 %), step = 1 C          (667 m%)
 Start ADE Session ID: dcaHmIRbBxj9romh
    dc: temp = 45 C        (63.3 %), step = 1 C          (667 m%)
 Start ADE Session ID: dcaHmIRbBxj9romh
    dc: temp = 46 C          (64 %), step = 1 C          (667 m%)
 Start ADE Session ID: dcaHmIRbBxj9romh
    dc: temp = 47 C        (64.7 %), step = 1 C          (667 m%)
 Start ADE Session ID: dcaHmIRbBxj9romh
    dc: temp = 48 C        (65.3 %), step = 1 C          (667 m%)
 Start ADE Session ID: dcaHmIRbBxj9romh
    dc: temp = 49 C          (66 %), step = 1 C          (667 m%)
 Start ADE Session ID: dcaHmIRbBxj9romh
    dc: temp = 50 C        (66.7 %), step = 1 C          (667 m%)
 Start ADE Session ID: dcaHmIRbBxj9romh
    dc: temp = 51 C        (67.3 %), step = 1 C          (667 m%)
 Start ADE Session ID: dcaHmIRbBxj9romh
    dc: temp = 52 C          (68 %), step = 1 C          (667 m%)
 Start ADE Session ID: dcaHmIRbBxj9romh
    dc: temp = 53 C        (68.7 %), step = 1 C          (667 m%)
 Start ADE Session ID: dcaHmIRbBxj9romh
    dc: temp = 54 C        (69.3 %), step = 1 C          (667 m%)
 Start ADE Session ID: dcaHmIRbBxj9romh
    dc: temp = 55 C          (70 %), step = 1 C          (667 m%)
 Start ADE Session ID: dcaHmIRbBxj9romh
    dc: temp = 56 C        (70.7 %), step = 1 C          (667 m%)
 Start ADE Session ID: dcaHmIRbBxj9romh
    dc: temp = 57 C        (71.3 %), step = 1 C          (667 m%)
 Start ADE Session ID: dcaHmIRbBxj9romh
    dc: temp = 58 C          (72 %), step = 1 C          (667 m%)
 Start ADE Session ID: dcaHmIRbBxj9romh
    dc: temp = 59 C        (72.7 %), step = 1 C          (667 m%)
 Start ADE Session ID: dcaHmIRbBxj9romh
    dc: temp = 60 C        (73.3 %), step = 1 C          (667 m%)
 Start ADE Session ID: dcaHmIRbBxj9romh
    dc: temp = 61 C          (74 %), step = 1 C          (667 m%)
 Start ADE Session ID: dcaHmIRbBxj9romh
    dc: temp = 62 C        (74.7 %), step = 1 C          (667 m%)
 Start ADE Session ID: dcaHmIRbBxj9romh
    dc: temp = 63 C        (75.3 %), step = 1 C          (667 m%)
 Start ADE Session ID: dcaHmIRbBxj9romh
    dc: temp = 64 C          (76 %), step = 1 C          (667 m%)
 Start ADE Session ID: dcaHmIRbBxj9romh
    dc: temp = 65 C        (76.7 %), step = 1 C          (667 m%)
 Start ADE Session ID: dcaHmIRbBxj9romh
    dc: temp = 66 C        (77.3 %), step = 1 C          (667 m%)
 Start ADE Session ID: dcaHmIRbBxj9romh
    dc: temp = 67 C          (78 %), step = 1 C          (667 m%)
 Start ADE Session ID: dcaHmIRbBxj9romh
    dc: temp = 68 C        (78.7 %), step = 1 C          (667 m%)
 Start ADE Session ID: dcaHmIRbBxj9romh
    dc: temp = 69 C        (79.3 %), step = 1 C          (667 m%)
 Start ADE Session ID: dcaHmIRbBxj9romh
    dc: temp = 70 C          (80 %), step = 1 C          (667 m%)
 Start ADE Session ID: dcaHmIRbBxj9romh
    dc: temp = 71 C        (80.7 %), step = 1 C          (667 m%)
 Start ADE Session ID: dcaHmIRbBxj9romh
    dc: temp = 72 C        (81.3 %), step = 1 C          (667 m%)
 Start ADE Session ID: dcaHmIRbBxj9romh
    dc: temp = 73 C          (82 %), step = 1 C          (667 m%)
 Start ADE Session ID: dcaHmIRbBxj9romh
    dc: temp = 74 C        (82.7 %), step = 1 C          (667 m%)
 Start ADE Session ID: dcaHmIRbBxj9romh
    dc: temp = 75 C        (83.3 %), step = 1 C          (667 m%)
 Start ADE Session ID: dcaHmIRbBxj9romh
    dc: temp = 76 C          (84 %), step = 1 C          (667 m%)
 Start ADE Session ID: dcaHmIRbBxj9romh
    dc: temp = 77 C        (84.7 %), step = 1 C          (667 m%)
 Start ADE Session ID: dcaHmIRbBxj9romh
    dc: temp = 78 C        (85.3 %), step = 1 C          (667 m%)
 Start ADE Session ID: dcaHmIRbBxj9romh
    dc: temp = 79 C          (86 %), step = 1 C          (667 m%)
 Start ADE Session ID: dcaHmIRbBxj9romh
    dc: temp = 80 C        (86.7 %), step = 1 C          (667 m%)
 Start ADE Session ID: dcaHmIRbBxj9romh
    dc: temp = 81 C        (87.3 %), step = 1 C          (667 m%)
 Start ADE Session ID: dcaHmIRbBxj9romh
    dc: temp = 82 C          (88 %), step = 1 C          (667 m%)
 Start ADE Session ID: dcaHmIRbBxj9romh
    dc: temp = 83 C        (88.7 %), step = 1 C          (667 m%)
 Start ADE Session ID: dcaHmIRbBxj9romh
    dc: temp = 84 C        (89.3 %), step = 1 C          (667 m%)
 Start ADE Session ID: dcaHmIRbBxj9romh
    dc: temp = 85 C          (90 %), step = 1 C          (667 m%)
 Start ADE Session ID: dcaHmIRbBxj9romh
    dc: temp = 86 C        (90.7 %), step = 1 C          (667 m%)
 Start ADE Session ID: dcaHmIRbBxj9romh
    dc: temp = 87 C        (91.3 %), step = 1 C          (667 m%)
 Start ADE Session ID: dcaHmIRbBxj9romh
    dc: temp = 88 C          (92 %), step = 1 C          (667 m%)
 Start ADE Session ID: dcaHmIRbBxj9romh
    dc: temp = 89 C        (92.7 %), step = 1 C          (667 m%)
 Start ADE Session ID: dcaHmIRbBxj9romh
    dc: temp = 90 C        (93.3 %), step = 1 C          (667 m%)
 Start ADE Session ID: dcaHmIRbBxj9romh
    dc: temp = 91 C          (94 %), step = 1 C          (667 m%)
 Start ADE Session ID: dcaHmIRbBxj9romh
    dc: temp = 92 C        (94.7 %), step = 1 C          (667 m%)
 Start ADE Session ID: dcaHmIRbBxj9romh
    dc: temp = 93 C        (95.3 %), step = 1 C          (667 m%)
 Start ADE Session ID: dcaHmIRbBxj9romh
    dc: temp = 94 C          (96 %), step = 1 C          (667 m%)
 Start ADE Session ID: dcaHmIRbBxj9romh
    dc: temp = 95 C        (96.7 %), step = 1 C          (667 m%)
 Start ADE Session ID: dcaHmIRbBxj9romh
    dc: temp = 96 C        (97.3 %), step = 1 C          (667 m%)
 Start ADE Session ID: dcaHmIRbBxj9romh
    dc: temp = 97 C          (98 %), step = 1 C          (667 m%)
 Start ADE Session ID: dcaHmIRbBxj9romh
    dc: temp = 98 C        (98.7 %), step = 1 C          (667 m%)
 Start ADE Session ID: dcaHmIRbBxj9romh
    dc: temp = 99 C        (99.3 %), step = 1 C          (667 m%)
 Start ADE Session ID: dcaHmIRbBxj9romh
    dc: temp = 100 C        (100 %), step = 1 C          (667 m%)

Maximum value achieved for any signal of each quantity: 
V: V(vdd!) = 1.2 V
I: I(V1:p) = 47.49 uA
DC simulation time: CPU = 103.655 ms, elapsed = 136.788 ms.
 Start ADE Session ID: dcaHmIRbBxj9romh

Notice from spectre at temp = 100 C during DC analysis `dc'.
    The value of parameter 'temp' has been reset to the original value 27.

Total time required for dc analysis `dc': CPU = 103.676 ms, elapsed = 136.808 ms, util. = 75.8%.
Time accumulated: CPU = 419.441 ms, elapsed = 731.302 ms.
Peak resident memory used = 208 Mbytes.

modelParameter: writing model parameter values to rawfile.

Opening the PSF file ../psf/modelParameter.info ...
element: writing instance parameter values to rawfile.

Opening the PSF file ../psf/element.info ...
outputParameter: writing output parameter values to rawfile.

Opening the PSF file ../psf/outputParameter.info ...
designParamVals: writing netlist parameters to rawfile.

Opening the PSFASCII file ../psf/designParamVals.info ...
primitives: writing primitives to rawfile.

Opening the PSFASCII file ../psf/primitives.info.primitives ...
subckts: writing subcircuits to rawfile.

Opening the PSFASCII file ../psf/subckts.info.subckts ...
Licensing Information:
Lic Summary:
[16:40:58.378320] Cdslmd servers:30000@cadence.cnfm.fr
[16:40:58.378344] Feature usage summary:
[16:40:58.378345] Virtuoso_Multi_mode_Simulation


Aggregate audit (4:40:58 PM, Thur May 7, 2026):
Time used: CPU = 429 ms, elapsed = 770 ms, util. = 55.8%.
Time spent in licensing: elapsed = 364 ms, percentage of total = 47.3%.
Peak memory used = 209 Mbytes.
Simulation started at: 4:40:57 PM, Thur May 7, 2026, ended at: 4:40:58 PM, Thur May 7, 2026, with elapsed time (wall clock): 770 ms.
spectre completes with 0 errors, 6 warnings, and 8 notices.


********* LOG ENDS **************
**                             **
